MOL_0_isomer_0_conf_0
     RDKit          3D

 18 18  0  0  0  0  0  0  0  0999 V2000
    2.2101   -0.0166   -1.1543 C   0  0  0  0  0  0  0  0  0  0  0  0
    3.5845   -0.0199   -1.0323 C   0  0  0  0  0  0  0  0  0  0  0  0
    4.4525   -0.0287   -2.2539 C   0  0  0  0  0  0  0  0  0  0  0  0
    4.2022   -0.0154    0.1657 N   0  0  0  0  0  0  0  0  0  0  0  0
    3.4230   -0.0075    1.2510 C   0  0  0  0  0  0  0  0  0  0  0  0
    4.0366   -0.0030    2.4679 N   0  0  0  0  0  0  0  0  0  0  0  0
    2.0871   -0.0039    1.2322 N   0  0  0  0  0  0  0  0  0  0  0  0
    1.4910   -0.0085    0.0233 C   0  0  0  0  0  0  0  0  0  0  0  0
   -0.0072   -0.0044   -0.0052 C   0  0  0  0  0  0  0  0  0  0  0  0
    1.7229   -0.0203   -2.1207 H   0  0  0  0  0  0  0  0  0  0  0  0
    5.5124   -0.0302   -1.9797 H   0  0  0  0  0  0  0  0  0  0  0  0
    4.2594    0.8608   -2.8617 H   0  0  0  0  0  0  0  0  0  0  0  0
    4.2544   -0.9233   -2.8524 H   0  0  0  0  0  0  0  0  0  0  0  0
    3.4552    0.0029    3.2861 H   0  0  0  0  0  0  0  0  0  0  0  0
    5.0402   -0.0057    2.4868 H   0  0  0  0  0  0  0  0  0  0  0  0
   -0.4169    0.0020    1.0100 H   0  0  0  0  0  0  0  0  0  0  0  0
   -0.3784   -0.8981   -0.5164 H   0  0  0  0  0  0  0  0  0  0  0  0
   -0.3734    0.8861   -0.5257 H   0  0  0  0  0  0  0  0  0  0  0  0
 10  1  1  0
  1  2  2  0
  2  3  1  0
  3 11  1  0
  3 12  1  0
  3 13  1  0
  2  4  1  0
  4  5  2  0
  5  6  1  0
  6 14  1  0
  6 15  1  0
  5  7  1  0
  1  8  1  0
  7  8  2  0
  8  9  1  0
  9 16  1  0
  9 17  1  0
  9 18  1  0
M  END
>  <conformer_energy>  (1) 
-90.32

>  <ligand_smiles>  (1) 
Cc1cc(C)nc(N)n1

>  <ligand_conf_name>  (1) 
MOL_0_isomer_0_conf_0

>  <ligand_molecule_name>  (1) 
MOL_0_isomer_0

$$$$
