MOL_0_isomer_0_conf_0
     RDKit          3D

 64 66  0  0  0  0  0  0  0  0999 V2000
    4.0881    6.1999  -10.3698 O   0  0  0  0  0  0  0  0  0  0  0  0
    3.5522    7.1153   -9.4097 C   0  0  0  0  0  0  0  0  0  0  0  0
    2.6419    6.3820   -8.4169 C   0  0  1  0  0  0  0  0  0  0  0  0
    3.4571    5.4019   -7.7553 O   0  0  0  0  0  0  0  0  0  0  0  0
    2.6916    4.5574   -6.8770 C   0  0  2  0  0  0  0  0  0  0  0  0
    1.6658    3.8961   -7.5831 O   0  0  0  0  0  0  0  0  0  0  0  0
    1.7137    2.2636   -7.5908 P   0  0  1  0  0  5  0  0  0  0  0  0
    0.5026    1.8477   -8.3891 O   0  0  0  0  0  0  0  0  0  0  0  0
    3.1213    1.9107   -8.0069 O   0  0  0  0  0  1  0  0  0  0  0  0
    1.4943    2.0490   -6.0253 O   0  0  0  0  0  0  0  0  0  0  0  0
    1.2745    0.7470   -5.1352 P   0  0  1  0  0  5  0  0  0  0  0  0
   -0.0590    0.8331   -4.4234 O   0  0  0  0  0  0  0  0  0  0  0  0
    1.7452   -0.5442   -5.7463 O   0  0  0  0  0  1  0  0  0  0  0  0
    2.3655    1.1139   -3.9694 O   0  0  0  0  0  0  0  0  0  0  0  0
    2.7194    0.0159   -3.1464 C   0  0  0  0  0  0  0  0  0  0  0  0
    3.3125    0.5273   -1.8325 C   0  0  1  0  0  0  0  0  0  0  0  0
    2.3169    1.2185   -1.0328 O   0  0  0  0  0  0  0  0  0  0  0  0
    1.8658    0.3342    0.0154 C   0  0  1  0  0  0  0  0  0  0  0  0
    0.4067    0.2962    0.0833 N   0  0  0  0  0  0  0  0  0  0  0  0
   -0.3634    0.4313   -1.0569 C   0  0  0  0  0  0  0  0  0  0  0  0
   -1.6947    0.3418   -1.0399 C   0  0  0  0  0  0  0  0  0  0  0  0
   -2.3662    0.0922    0.2396 C   0  0  0  0  0  0  0  0  0  0  0  0
   -3.5859   -0.0002    0.3298 O   0  0  0  0  0  0  0  0  0  0  0  0
   -1.5439   -0.0257    1.3235 N   0  0  0  0  0  0  0  0  0  0  0  0
   -0.1755    0.0658    1.3200 C   0  0  0  0  0  0  0  0  0  0  0  0
    0.4398   -0.0431    2.3798 O   0  0  0  0  0  0  0  0  0  0  0  0
    2.5146   -1.0392   -0.2409 C   0  0  2  0  0  0  0  0  0  0  0  0
    2.8092   -1.7821    0.9435 O   0  0  0  0  0  0  0  0  0  0  0  0
    3.7949   -0.6220   -0.9523 C   0  0  2  0  0  0  0  0  0  0  0  0
    4.7310   -0.1724    0.0567 O   0  0  0  0  0  0  0  0  0  0  0  0
    2.0712    5.4011   -5.7288 C   0  0  2  0  0  0  0  0  0  0  0  0
    1.2728    4.5712   -4.8146 N   0  0  0  0  0  0  0  0  0  0  0  0
    0.8646    4.9480   -3.5695 C   0  0  0  0  0  0  0  0  0  0  0  0
    1.0680    6.0744   -3.1180 O   0  0  0  0  0  0  0  0  0  0  0  0
    0.1385    3.8890   -2.7918 C   0  0  0  0  0  0  0  0  0  0  0  0
    1.2481    6.5692   -6.3246 C   0  0  1  0  0  0  0  0  0  0  0  0
    0.8724    7.5681   -5.3444 O   0  0  0  0  0  0  0  0  0  0  0  0
    2.0619    7.3343   -7.3790 C   0  0  2  0  0  0  0  0  0  0  0  0
    1.2396    8.3504   -7.9686 O   0  0  0  0  0  0  0  0  0  0  0  0
    4.1470    5.3372   -9.9042 H   0  0  0  0  0  0  0  0  0  0  0  0
    4.4061    7.5683   -8.8937 H   0  0  0  0  0  0  0  0  0  0  0  0
    3.0136    7.8959   -9.9557 H   0  0  0  0  0  0  0  0  0  0  0  0
    1.8517    5.8842   -8.9935 H   0  0  0  0  0  0  0  0  0  0  0  0
    3.3947    3.8436   -6.4346 H   0  0  0  0  0  0  0  0  0  0  0  0
    1.8374   -0.6055   -2.9656 H   0  0  0  0  0  0  0  0  0  0  0  0
    3.4644   -0.5841   -3.6801 H   0  0  0  0  0  0  0  0  0  0  0  0
    4.1043    1.2552   -2.0402 H   0  0  0  0  0  0  0  0  0  0  0  0
    2.2425    0.7489    0.9585 H   0  0  0  0  0  0  0  0  0  0  0  0
    0.1449    0.6272   -1.9965 H   0  0  0  0  0  0  0  0  0  0  0  0
   -2.2896    0.4466   -1.9382 H   0  0  0  0  0  0  0  0  0  0  0  0
   -1.9802   -0.1936    2.2124 H   0  0  0  0  0  0  0  0  0  0  0  0
    1.8860   -1.6608   -0.8882 H   0  0  0  0  0  0  0  0  0  0  0  0
    3.6291   -1.3802    1.2970 H   0  0  0  0  0  0  0  0  0  0  0  0
    4.2775   -1.4395   -1.4950 H   0  0  0  0  0  0  0  0  0  0  0  0
    4.8574    0.7873   -0.0642 H   0  0  0  0  0  0  0  0  0  0  0  0
    2.8804    5.8377   -5.1300 H   0  0  0  0  0  0  0  0  0  0  0  0
    1.0544    3.6201   -5.1290 H   0  0  0  0  0  0  0  0  0  0  0  0
   -0.3863    3.2002   -3.4570 H   0  0  0  0  0  0  0  0  0  0  0  0
   -0.6020    4.3637   -2.1418 H   0  0  0  0  0  0  0  0  0  0  0  0
    0.8565    3.3378   -2.1813 H   0  0  0  0  0  0  0  0  0  0  0  0
    0.3088    6.2013   -6.7558 H   0  0  0  0  0  0  0  0  0  0  0  0
    0.8085    7.1031   -4.4779 H   0  0  0  0  0  0  0  0  0  0  0  0
    2.8796    7.8605   -6.8660 H   0  0  0  0  0  0  0  0  0  0  0  0
    0.7535    8.7266   -7.2047 H   0  0  0  0  0  0  0  0  0  0  0  0
 40  1  1  0
  1  2  1  0
  2 41  1  0
  2 42  1  0
  2  3  1  0
  3 43  1  6
  3  4  1  0
  4  5  1  0
  5 44  1  1
  5  6  1  0
  6  7  1  0
  7  8  2  0
  7  9  1  6
  7 10  1  0
 10 11  1  0
 11 12  2  0
 11 13  1  6
 11 14  1  0
 14 15  1  0
 15 45  1  0
 15 46  1  0
 15 16  1  0
 16 47  1  6
 16 17  1  0
 17 18  1  0
 18 48  1  1
 18 19  1  0
 19 20  1  0
 20 49  1  0
 20 21  2  0
 21 50  1  0
 21 22  1  0
 22 23  2  0
 22 24  1  0
 24 51  1  0
 19 25  1  0
 24 25  1  0
 25 26  2  0
 18 27  1  0
 27 52  1  6
 27 28  1  0
 28 53  1  0
 16 29  1  0
 27 29  1  0
 29 54  1  6
 29 30  1  0
 30 55  1  0
  5 31  1  0
 31 56  1  1
 31 32  1  0
 32 57  1  0
 32 33  1  0
 33 34  2  0
 33 35  1  0
 35 58  1  0
 35 59  1  0
 35 60  1  0
 31 36  1  0
 36 61  1  6
 36 37  1  0
 37 62  1  0
  3 38  1  0
 36 38  1  0
 38 63  1  1
 38 39  1  0
 39 64  1  0
M  CHG  2   9  -1  13  -1
M  END
>  <conformer_energy>  (1) 
-156.17

>  <ligand_smiles>  (1) 
CC(=O)N[C@H]1[C@@H](O[P@@](=O)([O-])O[P@@](=O)([O-])OC[C@H]2O[C@@H](n3ccc(=O)[nH]c3=O)[C@H](O)[C@@H]2O)O[C@H](CO)[C@@H](O)[C@@H]1O

>  <ligand_conf_name>  (1) 
MOL_0_isomer_0_conf_0

>  <ligand_molecule_name>  (1) 
MOL_0_isomer_0

$$$$
