MOL_0_isomer_0_conf_0
     RDKit          3D

 21 21  0  0  0  0  0  0  0  0999 V2000
   -0.1603    0.8089    2.0620 O   0  0  0  0  0  0  0  0  0  0  0  0
    0.1509    0.6585    0.6778 C   0  0  1  0  0  0  0  0  0  0  0  0
    1.4784   -0.0603    0.4194 C   0  0  1  0  0  0  0  0  0  0  0  0
    1.5437   -1.2579    1.2224 O   0  0  0  0  0  0  0  0  0  0  0  0
    1.3341   -0.4732   -1.0501 C   0  0  1  0  0  0  0  0  0  0  0  0
    2.1923   -1.5691   -1.3214 O   0  0  0  0  0  0  0  0  0  0  0  0
   -0.1433   -0.8752   -1.2008 C   0  0  0  0  0  0  0  0  0  0  0  0
   -0.8522   -0.3142    0.0351 C   0  0  1  0  0  0  0  0  0  0  0  0
   -1.0990   -1.4028    1.0338 N   0  0  0  0  0  4  0  0  0  0  0  0
    0.6041    1.2389    2.4959 H   0  0  0  0  0  0  0  0  0  0  0  0
    0.1210    1.6360    0.1836 H   0  0  0  0  0  0  0  0  0  0  0  0
    2.3620    0.5463    0.6343 H   0  0  0  0  0  0  0  0  0  0  0  0
    2.3158   -1.7505    0.8570 H   0  0  0  0  0  0  0  0  0  0  0  0
    1.5801    0.3646   -1.7127 H   0  0  0  0  0  0  0  0  0  0  0  0
    2.2531   -1.6838   -2.2896 H   0  0  0  0  0  0  0  0  0  0  0  0
   -0.2777   -1.9567   -1.3138 H   0  0  0  0  0  0  0  0  0  0  0  0
   -0.5463   -0.4028   -2.1043 H   0  0  0  0  0  0  0  0  0  0  0  0
   -1.8268    0.1355   -0.1725 H   0  0  0  0  0  0  0  0  0  0  0  0
   -0.1864   -1.8299    1.2933 H   0  0  0  0  0  0  0  0  0  0  0  0
   -1.7615   -2.1297    0.7527 H   0  0  0  0  0  0  0  0  0  0  0  0
   -1.4082   -0.9552    1.9117 H   0  0  0  0  0  0  0  0  0  0  0  0
 10  1  1  0
  1  2  1  0
  2 11  1  6
  2  3  1  0
  3 12  1  6
  3  4  1  0
  4 13  1  0
  3  5  1  0
  5 14  1  6
  5  6  1  0
  6 15  1  0
  5  7  1  0
  7 16  1  0
  7 17  1  0
  2  8  1  0
  7  8  1  0
  8 18  1  6
  8  9  1  0
  9 19  1  0
  9 20  1  0
  9 21  1  0
M  CHG  1   9   1
M  END
>  <conformer_energy>  (1) 
56.85

>  <ligand_smiles>  (1) 
[NH3+][C@@H]1C[C@H](O)[C@H](O)[C@@H]1O

>  <ligand_conf_name>  (1) 
MOL_0_isomer_0_conf_0

>  <ligand_molecule_name>  (1) 
MOL_0_isomer_0

$$$$
