MOL_0_isomer_0_conf_0
     RDKit          3D

 50 53  0  0  0  0  0  0  0  0999 V2000
    0.1802   -2.2212    1.6645 O   0  0  0  0  0  0  0  0  0  0  0  0
   -0.3841   -0.9233    1.4621 C   0  0  0  0  0  0  0  0  0  0  0  0
    0.1291   -0.3138    0.1522 C   0  0  0  0  0  0  0  0  0  0  0  0
    1.5810   -0.2273    0.2038 N   0  0  0  0  0  0  0  0  0  0  0  0
    2.2972    0.1058   -0.9286 C   0  0  0  0  0  0  0  0  0  0  0  0
    1.6532    0.2539   -2.1106 N   0  0  0  0  0  0  0  0  0  0  0  0
    2.3560    0.6061   -3.2039 C   0  0  0  0  0  0  0  0  0  0  0  0
    3.6669    0.8471   -3.2942 N   0  0  0  0  0  0  0  0  0  0  0  0
    4.2721    0.6790   -2.1120 C   0  0  0  0  0  0  0  0  0  0  0  0
    5.6063    0.8707   -1.9418 O   0  0  0  0  0  0  0  0  0  0  0  0
    5.9092    0.6104   -0.6330 C   0  0  0  0  0  0  0  0  0  0  0  0
    7.3254    0.7570   -0.2980 C   0  0  0  0  0  0  0  0  0  0  0  0
    7.9354   -0.0384    0.6783 C   0  0  0  0  0  0  0  0  0  0  0  0
    9.2912    0.1224    0.9860 C   0  0  0  0  0  0  0  0  0  0  0  0
   10.0669    1.0748    0.3239 C   0  0  0  0  0  0  0  0  0  0  0  0
   11.3744    1.1259    0.7197 O   0  0  0  0  0  0  0  0  0  0  0  0
   12.2045    2.0810    0.0701 C   0  0  0  0  0  0  0  0  0  0  0  0
    9.4733    1.8681   -0.6549 C   0  0  0  0  0  0  0  0  0  0  0  0
    8.1157    1.7074   -0.9623 C   0  0  0  0  0  0  0  0  0  0  0  0
    4.7506    0.2519    0.0429 C   0  0  0  0  0  0  0  0  0  0  0  0
    4.6817   -0.0837    1.4503 C   0  0  0  0  0  0  0  0  0  0  0  0
    4.9102    0.8898    2.4253 C   0  0  0  0  0  0  0  0  0  0  0  0
    4.7995    0.5588    3.7779 C   0  0  0  0  0  0  0  0  0  0  0  0
    4.4549   -0.7373    4.1716 C   0  0  0  0  0  0  0  0  0  0  0  0
    4.3719   -0.9196    5.5240 O   0  0  0  0  0  0  0  0  0  0  0  0
    3.9572   -2.2025    5.9762 C   0  0  0  0  0  0  0  0  0  0  0  0
    4.2314   -1.7102    3.1972 C   0  0  0  0  0  0  0  0  0  0  0  0
    4.3456   -1.3851    1.8411 C   0  0  0  0  0  0  0  0  0  0  0  0
    3.6868    0.3089   -0.9123 C   0  0  0  0  0  0  0  0  0  0  0  0
    1.0318   -2.2211    1.1870 H   0  0  0  0  0  0  0  0  0  0  0  0
   -1.4734   -1.0218    1.4426 H   0  0  0  0  0  0  0  0  0  0  0  0
   -0.1053   -0.3002    2.3180 H   0  0  0  0  0  0  0  0  0  0  0  0
   -0.1755   -0.9666   -0.6744 H   0  0  0  0  0  0  0  0  0  0  0  0
   -0.3094    0.6788    0.0039 H   0  0  0  0  0  0  0  0  0  0  0  0
    2.0398   -0.1333    1.1020 H   0  0  0  0  0  0  0  0  0  0  0  0
    1.7854    0.7096   -4.1221 H   0  0  0  0  0  0  0  0  0  0  0  0
    7.3767   -0.8051    1.2079 H   0  0  0  0  0  0  0  0  0  0  0  0
    9.7463   -0.5063    1.7478 H   0  0  0  0  0  0  0  0  0  0  0  0
   13.2096    1.9935    0.4940 H   0  0  0  0  0  0  0  0  0  0  0  0
   11.8511    3.1005    0.2577 H   0  0  0  0  0  0  0  0  0  0  0  0
   12.2774    1.8756   -1.0030 H   0  0  0  0  0  0  0  0  0  0  0  0
   10.0324    2.6197   -1.2022 H   0  0  0  0  0  0  0  0  0  0  0  0
    7.6768    2.3400   -1.7322 H   0  0  0  0  0  0  0  0  0  0  0  0
    5.1711    1.9085    2.1468 H   0  0  0  0  0  0  0  0  0  0  0  0
    4.9793    1.3198    4.5342 H   0  0  0  0  0  0  0  0  0  0  0  0
    3.9079   -2.1723    7.0689 H   0  0  0  0  0  0  0  0  0  0  0  0
    4.6853   -2.9711    5.6970 H   0  0  0  0  0  0  0  0  0  0  0  0
    2.9577   -2.4514    5.6044 H   0  0  0  0  0  0  0  0  0  0  0  0
    3.9677   -2.7305    3.4571 H   0  0  0  0  0  0  0  0  0  0  0  0
    4.1684   -2.1569    1.0941 H   0  0  0  0  0  0  0  0  0  0  0  0
 30  1  1  0
  1  2  1  0
  2 31  1  0
  2 32  1  0
  2  3  1  0
  3 33  1  0
  3 34  1  0
  3  4  1  0
  4 35  1  0
  4  5  1  0
  5  6  2  0
  6  7  1  0
  7 36  1  0
  7  8  2  0
  8  9  1  0
  9 10  1  0
 10 11  1  0
 11 12  1  0
 12 13  2  0
 13 37  1  0
 13 14  1  0
 14 38  1  0
 14 15  2  0
 15 16  1  0
 16 17  1  0
 17 39  1  0
 17 40  1  0
 17 41  1  0
 15 18  1  0
 18 42  1  0
 12 19  1  0
 18 19  2  0
 19 43  1  0
 11 20  2  0
 20 21  1  0
 21 22  2  0
 22 44  1  0
 22 23  1  0
 23 45  1  0
 23 24  2  0
 24 25  1  0
 25 26  1  0
 26 46  1  0
 26 47  1  0
 26 48  1  0
 24 27  1  0
 27 49  1  0
 21 28  1  0
 27 28  2  0
 28 50  1  0
  5 29  1  0
  9 29  2  0
 20 29  1  0
M  END
>  <conformer_energy>  (1) 
23.85

>  <ligand_smiles>  (1) 
COc1ccc(-c2oc3ncnc(NCCO)c3c2-c2ccc(OC)cc2)cc1

>  <ligand_conf_name>  (1) 
MOL_0_isomer_0_conf_0

>  <ligand_molecule_name>  (1) 
MOL_0_isomer_0

$$$$
