MOL_0_isomer_0_conf_0
     RDKit          3D

 11 10  0  0  0  0  0  0  0  0999 V2000
    1.2498   -0.8213    0.7000 C   0  0  0  0  0  0  0  0  0  0  0  0
    0.0233   -0.2244    0.2504 O   0  0  0  0  0  0  0  0  0  0  0  0
   -0.6556    0.9059    1.2375 P   0  0  0  0  0  5  0  0  0  0  0  0
   -0.9388    0.1809    2.5504 O   0  0  0  0  0  0  0  0  0  0  0  0
   -1.9194    1.3433    0.4998 O   0  0  0  0  0  1  0  0  0  0  0  0
    0.3874    2.0129    1.3647 O   0  0  0  0  0  1  0  0  0  0  0  0
    1.8024   -1.8676   -0.2985 C   0  0  0  0  0  0  0  0  0  0  0  0
    2.6488   -1.4587   -1.1618 O   0  0  0  0  0  0  0  0  0  0  0  0
    1.4713   -3.0855   -0.1088 O   0  0  0  0  0  1  0  0  0  0  0  0
    1.0762   -1.3087    1.6650 H   0  0  0  0  0  0  0  0  0  0  0  0
    1.9984   -0.0347    0.8404 H   0  0  0  0  0  0  0  0  0  0  0  0
 10  1  1  0
  1 11  1  0
  1  2  1  0
  2  3  1  0
  3  4  2  0
  3  5  1  0
  3  6  1  0
  1  7  1  0
  7  8  2  0
  7  9  1  0
M  CHG  3   5  -1   6  -1   9  -1
M  END
>  <conformer_energy>  (1) 
106.81

>  <ligand_smiles>  (1) 
O=C([O-])COP(=O)([O-])[O-]

>  <ligand_conf_name>  (1) 
MOL_0_isomer_0_conf_0

>  <ligand_molecule_name>  (1) 
MOL_0_isomer_0

$$$$
