MOL_0_isomer_0_conf_0
     RDKit          3D

 21 21  0  0  0  0  0  0  0  0999 V2000
    2.1031   -0.4720   -1.3511 O   0  0  0  0  0  0  0  0  0  0  0  0
    1.5789    0.1744   -0.1647 C   0  0  1  0  0  0  0  0  0  0  0  0
    0.0058    0.2536   -0.2811 C   0  0  0  0  0  0  0  0  0  0  0  0
   -0.6060    0.9329    0.5884 O   0  0  0  0  0  0  0  0  0  0  0  0
   -0.4466   -0.4003   -1.2765 O   0  0  0  0  0  1  0  0  0  0  0  0
    1.9698   -0.7136    0.9898 C   0  0  0  0  0  0  0  0  0  0  0  0
    2.9699   -0.4251    1.8374 C   0  0  0  0  0  0  0  0  0  0  0  0
    3.8265    0.7931    1.6902 C   0  0  1  0  0  0  0  0  0  0  0  0
    5.1871    0.3759    1.8398 O   0  0  0  0  0  0  0  0  0  0  0  0
    3.6365    1.5380    0.3414 C   0  0  2  0  0  0  0  0  0  0  0  0
    4.1433    2.8814    0.4384 O   0  0  0  0  0  0  0  0  0  0  0  0
    2.1653    1.5838   -0.0698 C   0  0  0  0  0  0  0  0  0  0  0  0
    1.2681   -0.7328   -1.8158 H   0  0  0  0  0  0  0  0  0  0  0  0
    1.3794   -1.6158    1.1290 H   0  0  0  0  0  0  0  0  0  0  0  0
    3.1770   -1.0886    2.6709 H   0  0  0  0  0  0  0  0  0  0  0  0
    3.6204    1.4741    2.5237 H   0  0  0  0  0  0  0  0  0  0  0  0
    5.3916   -0.1389    1.0395 H   0  0  0  0  0  0  0  0  0  0  0  0
    4.2294    1.0512   -0.4422 H   0  0  0  0  0  0  0  0  0  0  0  0
    3.5690    3.3505    1.0679 H   0  0  0  0  0  0  0  0  0  0  0  0
    2.0822    2.0998   -1.0353 H   0  0  0  0  0  0  0  0  0  0  0  0
    1.6127    2.2041    0.6481 H   0  0  0  0  0  0  0  0  0  0  0  0
 13  1  1  0
  2  1  1  6
  2  3  1  0
  3  4  2  0
  3  5  1  0
  2  6  1  0
  6 14  1  0
  6  7  2  0
  7 15  1  0
  7  8  1  0
  8 16  1  1
  8  9  1  0
  9 17  1  0
  8 10  1  0
 10 18  1  6
 10 11  1  0
 11 19  1  0
  2 12  1  0
 10 12  1  0
 12 20  1  0
 12 21  1  0
M  CHG  1   5  -1
M  END
>  <conformer_energy>  (1) 
99.85

>  <ligand_smiles>  (1) 
O=C([O-])[C@]1(O)C=C[C@@H](O)[C@H](O)C1

>  <ligand_conf_name>  (1) 
MOL_0_isomer_0_conf_0

>  <ligand_molecule_name>  (1) 
MOL_0_isomer_0

$$$$
