MOL_0_isomer_0_conf_0
     RDKit          3D

 56 60  0  0  0  0  0  0  0  0999 V2000
   -1.1393    7.0426    0.2200 C   0  0  0  0  0  0  0  0  0  0  0  0
    0.0336    6.3630    0.1211 N   0  0  0  0  0  0  0  0  0  0  0  0
    1.1472    7.1444    0.2554 C   0  0  0  0  0  0  0  0  0  0  0  0
    2.4653    6.4534    0.1574 C   0  0  0  0  0  0  0  0  0  0  0  0
    3.5028    7.0956    0.2530 O   0  0  0  0  0  0  0  0  0  0  0  0
    2.3445    5.0891   -0.0468 N   0  0  0  0  0  0  0  0  0  0  0  0
    3.3701    4.1374   -0.1735 C   0  0  0  0  0  0  0  0  0  0  0  0
    4.7266    4.4462   -0.0822 C   0  0  0  0  0  0  0  0  0  0  0  0
    5.6847    3.4406   -0.1986 C   0  0  0  0  0  0  0  0  0  0  0  0
    5.2848    2.1285   -0.4171 C   0  0  0  0  0  0  0  0  0  0  0  0
    6.2324    1.1850   -0.5153 F   0  0  0  0  0  0  0  0  0  0  0  0
    3.9331    1.7723   -0.5382 C   0  0  0  0  0  0  0  0  0  0  0  0
    3.5594    0.3045   -0.7667 C   0  0  1  0  0  0  0  0  0  0  0  0
    4.4145   -0.1935   -1.8786 N   0  0  0  0  0  4  0  0  0  0  0  0
    5.2476   -1.2082   -1.8620 C   0  0  0  0  0  0  0  0  0  0  0  0
    5.9860   -1.4806   -2.9088 N   0  0  0  0  0  0  0  0  0  0  0  0
    5.4575   -2.2485   -0.5173 S   0  0  0  0  0  0  0  0  0  0  0  0
    3.8960   -1.9807    0.3353 C   0  0  0  0  0  0  0  0  0  0  0  0
    3.6819   -0.4887    0.5547 C   0  0  2  0  0  0  0  0  0  0  0  0
    2.3125   -0.2561    1.2279 C   0  0  0  0  0  0  0  0  0  0  0  0
    1.4058   -0.1353    0.1054 N   0  0  0  0  0  0  0  0  0  0  0  0
    0.0530   -0.1268    0.2382 C   0  0  0  0  0  0  0  0  0  0  0  0
   -0.4699   -0.2522    1.4684 N   0  0  0  0  0  0  0  0  0  0  0  0
   -1.8184   -0.2402    1.5746 C   0  0  0  0  0  0  0  0  0  0  0  0
   -2.6533   -0.1054    0.4984 C   0  0  0  0  0  0  0  0  0  0  0  0
   -3.9830   -0.0947    0.6249 F   0  0  0  0  0  0  0  0  0  0  0  0
   -2.0358    0.0201   -0.7174 C   0  0  0  0  0  0  0  0  0  0  0  0
   -0.6912    0.0148   -0.8726 N   0  0  0  0  0  0  0  0  0  0  0  0
    2.0726    0.0404   -1.1656 C   0  0  0  0  0  0  0  0  0  0  0  0
    2.9837    2.8041   -0.3959 C   0  0  0  0  0  0  0  0  0  0  0  0
    1.0834    8.5138    0.4717 C   0  0  0  0  0  0  0  0  0  0  0  0
   -0.0973    9.1785    0.5664 N   0  0  0  0  0  0  0  0  0  0  0  0
   -1.2068    8.4154    0.4372 C   0  0  0  0  0  0  0  0  0  0  0  0
   -2.4594    8.9825    0.5163 O   0  0  0  0  0  0  0  0  0  0  0  0
   -2.4235   10.3885    0.7464 C   0  0  0  0  0  0  0  0  0  0  0  0
   -2.0444    6.4530    0.1198 H   0  0  0  0  0  0  0  0  0  0  0  0
    1.3773    4.7717   -0.1032 H   0  0  0  0  0  0  0  0  0  0  0  0
    5.0728    5.4610    0.0938 H   0  0  0  0  0  0  0  0  0  0  0  0
    6.7408    3.6813   -0.1111 H   0  0  0  0  0  0  0  0  0  0  0  0
    4.3919    0.3668   -2.7214 H   0  0  0  0  0  0  0  0  0  0  0  0
    6.6227   -2.2670   -2.8372 H   0  0  0  0  0  0  0  0  0  0  0  0
    5.9786   -0.9391   -3.7593 H   0  0  0  0  0  0  0  0  0  0  0  0
    3.9356   -2.5052    1.2959 H   0  0  0  0  0  0  0  0  0  0  0  0
    3.0908   -2.4381   -0.2491 H   0  0  0  0  0  0  0  0  0  0  0  0
    4.4762   -0.1098    1.2110 H   0  0  0  0  0  0  0  0  0  0  0  0
    2.0479   -1.0808    1.8996 H   0  0  0  0  0  0  0  0  0  0  0  0
    2.3214    0.6749    1.8069 H   0  0  0  0  0  0  0  0  0  0  0  0
   -2.2156   -0.3452    2.5786 H   0  0  0  0  0  0  0  0  0  0  0  0
   -2.6179    0.1315   -1.6261 H   0  0  0  0  0  0  0  0  0  0  0  0
    1.6570    0.8499   -1.7758 H   0  0  0  0  0  0  0  0  0  0  0  0
    1.9880   -0.8840   -1.7512 H   0  0  0  0  0  0  0  0  0  0  0  0
    1.9172    2.5866   -0.4344 H   0  0  0  0  0  0  0  0  0  0  0  0
    1.9772    9.1205    0.5760 H   0  0  0  0  0  0  0  0  0  0  0  0
   -3.4573   10.7441    0.7957 H   0  0  0  0  0  0  0  0  0  0  0  0
   -1.9298   10.9127   -0.0792 H   0  0  0  0  0  0  0  0  0  0  0  0
   -1.9449   10.6215    1.7039 H   0  0  0  0  0  0  0  0  0  0  0  0
 36  1  1  0
  1  2  2  0
  2  3  1  0
  3  4  1  0
  4  5  2  0
  4  6  1  0
  6 37  1  0
  6  7  1  0
  7  8  2  0
  8 38  1  0
  8  9  1  0
  9 39  1  0
  9 10  2  0
 10 11  1  0
 10 12  1  0
 13 12  1  1
 13 14  1  0
 14 40  1  0
 14 15  2  0
 15 16  1  0
 16 41  1  0
 16 42  1  0
 15 17  1  0
 17 18  1  0
 18 43  1  0
 18 44  1  0
 13 19  1  0
 18 19  1  0
 19 45  1  1
 19 20  1  0
 20 46  1  0
 20 47  1  0
 20 21  1  0
 21 22  1  0
 22 23  2  0
 23 24  1  0
 24 48  1  0
 24 25  2  0
 25 26  1  0
 25 27  1  0
 27 49  1  0
 22 28  1  0
 27 28  2  0
 13 29  1  0
 21 29  1  0
 29 50  1  0
 29 51  1  0
  7 30  1  0
 12 30  2  0
 30 52  1  0
  3 31  2  0
 31 53  1  0
 31 32  1  0
  1 33  1  0
 32 33  2  0
 33 34  1  0
 34 35  1  0
 35 54  1  0
 35 55  1  0
 35 56  1  0
M  CHG  1  14   1
M  END
>  <conformer_energy>  (1) 
-30.77

>  <ligand_smiles>  (1) 
COc1cnc(C(=O)Nc2ccc(F)c([C@]34CN(c5ncc(F)cn5)C[C@H]3CSC(N)=[NH+]4)c2)cn1

>  <ligand_conf_name>  (1) 
MOL_0_isomer_0_conf_0

>  <ligand_molecule_name>  (1) 
MOL_0_isomer_0

$$$$
