1TOW - prepared_ligand_conf_0
     RDKit          3D

 33 35  0  0  0  0  0  0  0  0999 V2000
    5.8805   -1.3873    0.9865 C   0  0  0  0  0  0  0  0  0  0  0  0
    4.9638   -1.9421    1.8741 C   0  0  0  0  0  0  0  0  0  0  0  0
    3.5969   -1.6767    1.7555 C   0  0  0  0  0  0  0  0  0  0  0  0
    3.1745   -0.8336    0.7131 C   0  0  0  0  0  0  0  0  0  0  0  0
    4.0724   -0.2622   -0.1879 C   0  0  0  0  0  0  0  0  0  0  0  0
    5.4487   -0.5452   -0.0451 C   0  0  0  0  0  0  0  0  0  0  0  0
    3.3138    0.5272   -1.1084 C   0  0  0  0  0  0  0  0  0  0  0  0
    3.6594    1.3207   -2.2238 C   0  0  0  0  0  0  0  0  0  0  0  0
    2.6585    1.9816   -2.9432 C   0  0  0  0  0  0  0  0  0  0  0  0
    1.3260    1.8715   -2.5599 C   0  0  0  0  0  0  0  0  0  0  0  0
    0.9583    1.1022   -1.4535 C   0  0  0  0  0  0  0  0  0  0  0  0
    1.9684    0.4261   -0.7467 C   0  0  0  0  0  0  0  0  0  0  0  0
    1.9088   -0.4107    0.3518 N   0  0  0  0  0  0  0  0  0  0  0  0
    0.6821   -0.8325    1.0206 C   0  0  0  0  0  0  0  0  0  0  0  0
    0.3421    0.0554    2.2174 C   0  0  0  0  0  0  0  0  0  0  0  0
   -0.9708   -0.3566    2.8766 C   0  0  0  0  0  0  0  0  0  0  0  0
   -0.9757   -1.7946    3.4014 C   0  0  0  0  0  0  0  0  0  0  0  0
    0.1321   -2.2266    3.8241 O   0  0  0  0  0  0  0  0  0  0  0  0
   -2.0930   -2.3784    3.3219 O   0  0  0  0  0  0  0  0  0  0  0  0
    6.9385   -1.6070    1.0960 H   0  0  0  0  0  0  0  0  0  0  0  0
    5.3056   -2.5945    2.6745 H   0  0  0  0  0  0  0  0  0  0  0  0
    2.8857   -2.1110    2.4571 H   0  0  0  0  0  0  0  0  0  0  0  0
    6.1693   -0.1142   -0.7324 H   0  0  0  0  0  0  0  0  0  0  0  0
    4.6983    1.4104   -2.5237 H   0  0  0  0  0  0  0  0  0  0  0  0
    2.9269    2.5864   -3.8045 H   0  0  0  0  0  0  0  0  0  0  0  0
    0.5566    2.3875   -3.1279 H   0  0  0  0  0  0  0  0  0  0  0  0
   -0.0836    1.0245   -1.1604 H   0  0  0  0  0  0  0  0  0  0  0  0
   -0.1266   -0.8147    0.2825 H   0  0  0  0  0  0  0  0  0  0  0  0
    0.8151   -1.8812    1.3049 H   0  0  0  0  0  0  0  0  0  0  0  0
    1.1570    0.0267    2.9509 H   0  0  0  0  0  0  0  0  0  0  0  0
    0.2633    1.1003    1.8916 H   0  0  0  0  0  0  0  0  0  0  0  0
   -1.1771    0.3038    3.7270 H   0  0  0  0  0  0  0  0  0  0  0  0
   -1.7930   -0.2302    2.1620 H   0  0  0  0  0  0  0  0  0  0  0  0
 20  1  1  0
  1  2  2  0
  2 21  1  0
  2  3  1  0
  3 22  1  0
  3  4  2  0
  4  5  1  0
  1  6  1  0
  5  6  2  0
  6 23  1  0
  5  7  1  0
  7  8  2  0
  8 24  1  0
  8  9  1  0
  9 25  1  0
  9 10  2  0
 10 26  1  0
 10 11  1  0
 11 27  1  0
  7 12  1  0
 11 12  2  0
  4 13  1  0
 12 13  1  0
 13 14  1  0
 14 28  1  0
 14 29  1  0
 14 15  1  0
 15 30  1  0
 15 31  1  0
 15 16  1  0
 16 32  1  0
 16 33  1  0
 16 17  1  0
 17 18  2  0
 17 19  1  0
M  CHG  1  19  -1
M  END
>  <conformer_energy>  (1) 
28.12

>  <ligand_smiles>  (1) 
O=C([O-])CCCn1c2ccccc2c2ccccc21

>  <ligand_conf_name>  (1) 
1TOW - prepared_ligand_conf_0

>  <ligand_molecule_name>  (1) 
1TOW - prepared_ligand

$$$$
