MOL_0_isomer_0_conf_0
     RDKit          3D

 25 26  0  0  0  0  0  0  0  0999 V2000
    6.0015    3.1104    3.4599 C   0  0  0  0  0  0  0  0  0  0  0  0
    6.5308    1.9516    2.9047 C   0  0  0  0  0  0  0  0  0  0  0  0
    5.7649    1.1929    2.0155 C   0  0  0  0  0  0  0  0  0  0  0  0
    4.4497    1.5674    1.6614 C   0  0  0  0  0  0  0  0  0  0  0  0
    3.6895    0.7175    0.7360 C   0  0  0  0  0  0  0  0  0  0  0  0
    2.4544    0.3694    1.0817 N   0  0  0  0  0  0  0  0  0  0  0  0
    1.8413   -0.4237    0.2115 C   0  0  0  0  0  0  0  0  0  0  0  0
    0.1806   -0.9526    0.5666 S   0  0  0  0  0  0  0  0  0  0  0  0
   -0.3432    0.3817    1.6709 C   0  0  0  0  0  0  0  0  0  0  0  0
    2.3765   -0.8877   -0.9133 N   0  0  0  0  0  0  0  0  0  0  0  0
    3.6154   -0.4960   -1.1474 C   0  0  0  0  0  0  0  0  0  0  0  0
    4.2133   -0.9454   -2.2886 N   0  0  0  0  0  0  0  0  0  0  0  0
    4.3225    0.2964   -0.3596 N   0  0  0  0  0  0  0  0  0  0  0  0
    3.9413    2.7521    2.2266 C   0  0  0  0  0  0  0  0  0  0  0  0
    2.3768    3.3830    1.8286 Cl  0  0  0  0  0  0  0  0  0  0  0  0
    4.7114    3.5120    3.1193 C   0  0  0  0  0  0  0  0  0  0  0  0
    6.5932    3.7051    4.1514 H   0  0  0  0  0  0  0  0  0  0  0  0
    7.5390    1.6341    3.1607 H   0  0  0  0  0  0  0  0  0  0  0  0
    6.1996    0.2864    1.5940 H   0  0  0  0  0  0  0  0  0  0  0  0
   -1.3943    0.2329    1.9331 H   0  0  0  0  0  0  0  0  0  0  0  0
   -0.2475    1.3527    1.1772 H   0  0  0  0  0  0  0  0  0  0  0  0
    0.2417    0.3779    2.5949 H   0  0  0  0  0  0  0  0  0  0  0  0
    5.1494   -0.6424   -2.4925 H   0  0  0  0  0  0  0  0  0  0  0  0
    3.6794   -1.5394   -2.8999 H   0  0  0  0  0  0  0  0  0  0  0  0
    4.3092    4.4274    3.5476 H   0  0  0  0  0  0  0  0  0  0  0  0
 17  1  1  0
  1  2  2  0
  2 18  1  0
  2  3  1  0
  3 19  1  0
  3  4  2  0
  4  5  1  0
  5  6  2  0
  6  7  1  0
  7  8  1  0
  8  9  1  0
  9 20  1  0
  9 21  1  0
  9 22  1  0
  7 10  2  0
 10 11  1  0
 11 12  1  0
 12 23  1  0
 12 24  1  0
  5 13  1  0
 11 13  2  0
  4 14  1  0
 14 15  1  0
  1 16  1  0
 14 16  2  0
 16 25  1  0
M  END
>  <conformer_energy>  (1) 
-159.76

>  <ligand_smiles>  (1) 
CSc1nc(N)nc(-c2ccccc2Cl)n1

>  <ligand_conf_name>  (1) 
MOL_0_isomer_0_conf_0

>  <ligand_molecule_name>  (1) 
MOL_0_isomer_0

$$$$
