MOL_0_isomer_0_conf_0
     RDKit          3D

 40 43  0  0  0  0  0  0  0  0999 V2000
    9.7730    0.0991   -4.5102 C   0  0  0  0  0  0  0  0  0  0  0  0
   11.3810    0.6844   -4.5721 S   0  0  0  0  0  0  0  0  0  0  0  0
   10.9727    1.8587   -3.4111 C   0  0  0  0  0  0  0  0  0  0  0  0
   11.9359    2.7721   -2.9563 N   0  0  0  0  0  0  0  0  0  0  0  0
   13.2701    2.8954   -3.3229 C   0  0  0  0  0  0  0  0  0  0  0  0
   13.8483    3.9292   -2.6183 C   0  0  0  0  0  0  0  0  0  0  0  0
   12.8526    4.4762   -1.7841 C   0  0  0  0  0  0  0  0  0  0  0  0
   11.6999    3.7589   -2.0076 C   0  0  0  0  0  0  0  0  0  0  0  0
    9.7345    1.8541   -2.9710 N   0  0  0  0  0  0  0  0  0  0  0  0
    9.0178    0.8423   -3.6163 C   0  0  0  0  0  0  0  0  0  0  0  0
    7.5700    0.6475   -3.2512 C   0  0  0  0  0  0  0  0  0  0  0  0
    6.7965   -0.2237   -4.2516 C   0  0  0  0  0  0  0  0  0  0  0  0
    6.8595   -0.0082   -5.4646 O   0  0  0  0  0  0  0  0  0  0  0  0
    6.1702   -1.2704   -3.7014 N   0  0  0  0  0  2  0  0  0  0  0  0
    5.2061   -0.9812   -2.7938 C   0  0  0  0  0  0  0  0  0  0  0  0
    4.7885    0.2094   -2.4207 N   0  0  0  0  0  0  0  0  0  0  0  0
    3.7972    0.0969   -1.4670 C   0  0  0  0  0  0  0  0  0  0  0  0
    3.1246    1.1718   -0.8476 C   0  0  0  0  0  0  0  0  0  0  0  0
    2.1575    0.9223    0.1308 C   0  0  0  0  0  0  0  0  0  0  0  0
    1.8652   -0.3922    0.4907 C   0  0  0  0  0  0  0  0  0  0  0  0
    0.6738   -0.7057    1.7702 S   0  0  0  0  0  6  0  0  0  0  0  0
    0.0062   -1.9564    1.4627 O   0  0  0  0  0  0  0  0  0  0  0  0
   -0.0925    0.5090    1.9808 O   0  0  0  0  0  0  0  0  0  0  0  0
    1.6874   -0.9600    3.2039 C   0  0  0  0  0  0  0  0  0  0  0  0
    2.4892   -1.4837   -0.1279 C   0  0  0  0  0  0  0  0  0  0  0  0
    3.4630   -1.2068   -1.1017 C   0  0  0  0  0  0  0  0  0  0  0  0
    4.4232   -2.3021   -2.0161 S   0  0  0  0  0  0  0  0  0  0  0  0
    9.4442   -0.7311   -5.1210 H   0  0  0  0  0  0  0  0  0  0  0  0
   13.7039    2.2345   -4.0603 H   0  0  0  0  0  0  0  0  0  0  0  0
   14.8783    4.2503   -2.7018 H   0  0  0  0  0  0  0  0  0  0  0  0
   12.9558    5.3036   -1.0945 H   0  0  0  0  0  0  0  0  0  0  0  0
   10.7103    3.8523   -1.5771 H   0  0  0  0  0  0  0  0  0  0  0  0
    7.5500    0.2210   -2.2409 H   0  0  0  0  0  0  0  0  0  0  0  0
    7.0740    1.6249   -3.2124 H   0  0  0  0  0  0  0  0  0  0  0  0
    3.3777    2.1851   -1.1431 H   0  0  0  0  0  0  0  0  0  0  0  0
    1.6499    1.7619    0.5995 H   0  0  0  0  0  0  0  0  0  0  0  0
    1.0287   -1.1539    4.0535 H   0  0  0  0  0  0  0  0  0  0  0  0
    2.2757   -0.0593    3.3895 H   0  0  0  0  0  0  0  0  0  0  0  0
    2.3370   -1.8210    3.0359 H   0  0  0  0  0  0  0  0  0  0  0  0
    2.2463   -2.5095    0.1306 H   0  0  0  0  0  0  0  0  0  0  0  0
 28  1  1  0
  1  2  1  0
  2  3  1  0
  3  4  1  0
  4  5  1  0
  5 29  1  0
  5  6  2  0
  6 30  1  0
  6  7  1  0
  7 31  1  0
  4  8  1  0
  7  8  2  0
  8 32  1  0
  3  9  2  0
  1 10  2  0
  9 10  1  0
 10 11  1  0
 11 33  1  0
 11 34  1  0
 11 12  1  0
 12 13  2  0
 12 14  1  0
 14 15  1  0
 15 16  2  0
 16 17  1  0
 17 18  2  0
 18 35  1  0
 18 19  1  0
 19 36  1  0
 19 20  2  0
 20 21  1  0
 21 22  2  0
 21 23  2  0
 21 24  1  0
 24 37  1  0
 24 38  1  0
 24 39  1  0
 20 25  1  0
 25 40  1  0
 17 26  1  0
 25 26  2  0
 15 27  1  0
 26 27  1  0
M  CHG  1  14  -1
M  END
>  <conformer_energy>  (1) 
103.02

>  <ligand_smiles>  (1) 
CS(=O)(=O)c1ccc2nc([N-]C(=O)Cc3csc(-n4cccc4)n3)sc2c1

>  <ligand_conf_name>  (1) 
MOL_0_isomer_0_conf_0

>  <ligand_molecule_name>  (1) 
MOL_0_isomer_0

$$$$
