1N46 - prepared_ligand2_conf_0
     RDKit          3D

 49 51  0  0  0  0  0  0  0  0999 V2000
    1.6273   -2.2494    1.1321 O   0  0  0  0  0  0  0  0  0  0  0  0
    2.0944   -1.0300    0.7345 C   0  0  0  0  0  0  0  0  0  0  0  0
    3.3768   -0.7207    1.1945 C   0  0  0  0  0  0  0  0  0  0  0  0
    3.9783    0.4933    0.8646 C   0  0  0  0  0  0  0  0  0  0  0  0
    3.2922    1.4061    0.0687 C   0  0  0  0  0  0  0  0  0  0  0  0
    3.7628    2.6394   -0.3347 O   0  0  0  0  0  0  0  0  0  0  0  0
    5.0076    3.0325    0.1001 C   0  0  0  0  0  0  0  0  0  0  0  0
    6.1318    2.7628   -0.6919 C   0  0  0  0  0  0  0  0  0  0  0  0
    6.0161    2.0151   -1.9892 C   0  0  0  0  0  0  0  0  0  0  0  0
    7.4005    3.1633   -0.2317 C   0  0  0  0  0  0  0  0  0  0  0  0
    7.5707    3.8500    0.9801 C   0  0  0  0  0  0  0  0  0  0  0  0
    8.8600    4.2708    1.4624 N   0  0  0  0  0  0  0  0  0  0  0  0
    8.8067    5.0404    2.6321 N   0  0  0  0  0  0  0  0  0  0  0  0
    9.9063    5.6481    2.9793 C   0  0  0  0  0  0  0  0  0  0  0  0
   11.1429    5.6994    2.1203 C   0  0  1  0  0  0  0  0  0  0  0  0
   12.2308    5.7346    2.8470 O   0  0  0  0  0  0  0  0  0  0  0  0
   11.2031    4.4291    1.4804 N   0  0  0  0  0  0  0  0  0  0  0  0
   10.0992    3.8440    0.9128 C   0  0  0  0  0  0  0  0  0  0  0  0
   10.2643    2.9873    0.0419 O   0  0  0  0  0  0  0  0  0  0  0  0
    6.4070    4.1506    1.7160 C   0  0  0  0  0  0  0  0  0  0  0  0
    5.1249    3.7658    1.2871 C   0  0  0  0  0  0  0  0  0  0  0  0
    3.9281    4.0988    2.1292 C   0  0  0  0  0  0  0  0  0  0  0  0
    2.0070    1.0886   -0.3897 C   0  0  0  0  0  0  0  0  0  0  0  0
    1.3769   -0.1334   -0.0693 C   0  0  0  0  0  0  0  0  0  0  0  0
   -0.0194   -0.3612   -0.6262 C   0  0  0  0  0  0  0  0  0  0  0  0
   -1.0846   -0.4701    0.4681 C   0  0  0  0  0  0  0  0  0  0  0  0
   -0.0822   -1.5313   -1.6115 C   0  0  0  0  0  0  0  0  0  0  0  0
    0.7415   -2.3893    0.7747 H   0  0  0  0  0  0  0  0  0  0  0  0
    3.9143   -1.4326    1.8162 H   0  0  0  0  0  0  0  0  0  0  0  0
    4.9768    0.6988    1.2396 H   0  0  0  0  0  0  0  0  0  0  0  0
    6.9008    2.1681   -2.6163 H   0  0  0  0  0  0  0  0  0  0  0  0
    5.1536    2.3653   -2.5656 H   0  0  0  0  0  0  0  0  0  0  0  0
    5.9115    0.9428   -1.7979 H   0  0  0  0  0  0  0  0  0  0  0  0
    8.2558    2.9382   -0.8611 H   0  0  0  0  0  0  0  0  0  0  0  0
    9.8958    6.2499    3.9035 H   0  0  0  0  0  0  0  0  0  0  0  0
   10.9332    6.4450    1.3424 H   0  0  0  0  0  0  0  0  0  0  0  0
   12.1192    4.1173    1.2141 H   0  0  0  0  0  0  0  0  0  0  0  0
    6.4971    4.6932    2.6553 H   0  0  0  0  0  0  0  0  0  0  0  0
    4.1451    4.9217    2.8187 H   0  0  0  0  0  0  0  0  0  0  0  0
    3.6272    3.2271    2.7182 H   0  0  0  0  0  0  0  0  0  0  0  0
    3.0885    4.4203    1.5044 H   0  0  0  0  0  0  0  0  0  0  0  0
    1.4947    1.8213   -1.0111 H   0  0  0  0  0  0  0  0  0  0  0  0
   -0.2940    0.5275   -1.2121 H   0  0  0  0  0  0  0  0  0  0  0  0
   -2.0856   -0.4977    0.0236 H   0  0  0  0  0  0  0  0  0  0  0  0
   -1.0424    0.3951    1.1393 H   0  0  0  0  0  0  0  0  0  0  0  0
   -0.9768   -1.3688    1.0810 H   0  0  0  0  0  0  0  0  0  0  0  0
   -1.0678   -1.5751   -2.0882 H   0  0  0  0  0  0  0  0  0  0  0  0
    0.0913   -2.5000   -1.1357 H   0  0  0  0  0  0  0  0  0  0  0  0
    0.6655   -1.4132   -2.4038 H   0  0  0  0  0  0  0  0  0  0  0  0
 28  1  1  0
  1  2  1  0
  2  3  2  0
  3 29  1  0
  3  4  1  0
  4 30  1  0
  4  5  2  0
  5  6  1  0
  6  7  1  0
  7  8  2  0
  8  9  1  0
  9 31  1  0
  9 32  1  0
  9 33  1  0
  8 10  1  0
 10 34  1  0
 10 11  2  0
 11 12  1  0
 12 13  1  0
 13 14  2  0
 14 35  1  0
 14 15  1  0
 15 36  1  6
 15 16  1  0
 15 17  1  0
 17 37  1  0
 12 18  1  0
 17 18  1  0
 18 19  2  0
 11 20  1  0
 20 38  1  0
  7 21  1  0
 20 21  2  0
 21 22  1  0
 22 39  1  0
 22 40  1  0
 22 41  1  0
  5 23  1  0
 23 42  1  0
  2 24  1  0
 23 24  2  0
 24 25  1  0
 25 43  1  0
 25 26  1  0
 26 44  1  0
 26 45  1  0
 26 46  1  0
 25 27  1  0
 27 47  1  0
 27 48  1  0
 27 49  1  0
M  CHG  1  16  -1
M  END
>  <conformer_energy>  (1) 
83.73

>  <ligand_smiles>  (1) 
Cc1cc(N2N=C[C@@H]([O-])NC2=O)cc(C)c1Oc1ccc(O)c(C(C)C)c1

>  <ligand_conf_name>  (1) 
1N46 - prepared_ligand2_conf_0

>  <ligand_molecule_name>  (1) 
1N46 - prepared_ligand2

>  <fragInfo>  (1) 
7 8 9 10 11 20 21 22 31 32 33 34 38 39 40 41
1 2 3 4 5 23 24 28 29 30 42
6
12 13 14 15 16 17 18 19 35 36 37
25 26 27 43 44 45 46 47 48 49


>  <torsionInfo>  (1) 
6 7 2 0
11 12 0 3
5 6 1 2
24 25 1 4


>  <atomInfo>  (1) 
1  -0.507660 OA
2  0.118797  A 
3  -0.016226 A 
4  -0.015617 A 
5  0.127516  A 
6  -0.456806 OA
7  0.132889  A 
8  -0.005919 A 
9  -0.035988 C 
10 -0.029492 A 
11 0.070966  A 
12 -0.182785 N 
13 -0.175729 NA
14 0.031366  C 
15 -0.009278 C 
16 -0.832015 OA
17 -0.343974 N 
18 0.341440  C 
19 -0.246261 OA
20 -0.029492 A 
21 -0.005919 A 
22 -0.035988 C 
23 -0.012149 A 
24 0.000091  A 
25 -0.018089 C 
26 -0.058542 C 
27 -0.058542 C 
28 0.293108  HD
29 0.066331  H 
30 0.066352  H 
31 0.028104  H 
32 0.028104  H 
33 0.028104  H 
34 0.064977  H 
35 0.081787  H 
36 0.039871  H 
37 0.164038  HD
38 0.064977  H 
39 0.028104  H 
40 0.028104  H 
41 0.028104  H 
42 0.066658  H 
43 0.034791  H 
44 0.023648  H 
45 0.023648  H 
46 0.023648  H 
47 0.023648  H 
48 0.023648  H 
49 0.023648  H 


$$$$
