1HVY - prepared_ligand7_conf_0
     RDKit          3D

 52 54  0  0  0  0  0  0  0  0999 V2000
    4.2013   -0.4606    2.3947 C   0  0  0  0  0  0  0  0  0  0  0  0
    3.3931   -0.1646    1.3164 C   0  0  0  0  0  0  0  0  0  0  0  0
    1.9997    0.2752    1.3677 C   0  0  0  0  0  0  0  0  0  0  0  0
    1.4473    0.5315    2.4364 O   0  0  0  0  0  0  0  0  0  0  0  0
    1.3607    0.3361    0.1586 N   0  0  0  0  0  0  0  0  0  0  0  0
   -0.0871    0.5435   -0.0448 C   0  0  2  0  0  0  0  0  0  0  0  0
   -0.7203   -0.6860   -0.7952 C   0  0  0  0  0  0  0  0  0  0  0  0
    0.0922   -1.3319   -1.5347 O   0  0  0  0  0  0  0  0  0  0  0  0
   -1.9351   -0.9379   -0.5426 O   0  0  0  0  0  0  0  0  0  0  0  0
   -0.3401    1.7991   -0.8981 C   0  0  0  0  0  0  0  0  0  0  0  0
    0.0717    3.0956   -0.1889 C   0  0  0  0  0  0  0  0  0  0  0  0
   -0.1622    4.4039   -0.9543 C   0  0  0  0  0  0  0  0  0  0  0  0
   -0.4159    4.3152   -2.1886 O   0  0  0  0  0  0  0  0  0  0  0  0
   -0.0548    5.4537   -0.2482 O   0  0  0  0  0  0  0  0  0  0  0  0
    4.2426   -0.3748   -0.1484 S   0  0  0  0  0  0  0  0  0  0  0  0
    5.6820   -0.9353    0.6293 C   0  0  0  0  0  0  0  0  0  0  0  0
    6.8047   -1.3340   -0.0603 N   0  0  0  0  0  0  0  0  0  0  0  0
    6.9151   -1.0792   -1.4943 C   0  0  0  0  0  0  0  0  0  0  0  0
    7.7413   -2.2954    0.5151 C   0  0  0  0  0  0  0  0  0  0  0  0
    9.1405   -1.7214    0.6196 C   0  0  0  0  0  0  0  0  0  0  0  0
   10.2146   -2.3366   -0.0453 C   0  0  0  0  0  0  0  0  0  0  0  0
   11.5087   -1.8138    0.0491 C   0  0  0  0  0  0  0  0  0  0  0  0
   11.7604   -0.6747    0.8142 C   0  0  0  0  0  0  0  0  0  0  0  0
   13.0757   -0.1775    0.8774 N   0  0  0  0  0  0  0  0  0  0  0  0
   13.2816    0.8875    1.5808 C   0  0  0  0  0  0  0  0  0  0  0  0
   14.6590    1.4766    1.6769 C   0  0  0  0  0  0  0  0  0  0  0  0
   12.2982    1.5407    2.2686 N   0  0  0  0  0  0  0  0  0  0  0  0
   10.9930    1.1190    2.2980 C   0  0  0  0  0  0  0  0  0  0  0  0
   10.1516    1.6926    2.9783 O   0  0  0  0  0  0  0  0  0  0  0  0
   10.6920   -0.0719    1.4850 C   0  0  0  0  0  0  0  0  0  0  0  0
    9.3912   -0.5786    1.3928 C   0  0  0  0  0  0  0  0  0  0  0  0
    5.4969   -0.9050    2.0018 C   0  0  0  0  0  0  0  0  0  0  0  0
    3.8594   -0.3654    3.4188 H   0  0  0  0  0  0  0  0  0  0  0  0
    1.8161   -0.0469   -0.6623 H   0  0  0  0  0  0  0  0  0  0  0  0
   -0.5733    0.6408    0.9330 H   0  0  0  0  0  0  0  0  0  0  0  0
   -1.4053    1.8606   -1.1581 H   0  0  0  0  0  0  0  0  0  0  0  0
    0.2030    1.7165   -1.8493 H   0  0  0  0  0  0  0  0  0  0  0  0
   -0.4677    3.1648    0.7647 H   0  0  0  0  0  0  0  0  0  0  0  0
    1.1418    3.0618    0.0492 H   0  0  0  0  0  0  0  0  0  0  0  0
    7.9130   -1.3280   -1.8722 H   0  0  0  0  0  0  0  0  0  0  0  0
    6.7495   -0.0200   -1.7223 H   0  0  0  0  0  0  0  0  0  0  0  0
    6.1967   -1.6888   -2.0556 H   0  0  0  0  0  0  0  0  0  0  0  0
    7.7509   -3.1940   -0.1185 H   0  0  0  0  0  0  0  0  0  0  0  0
    7.4437   -2.6508    1.5089 H   0  0  0  0  0  0  0  0  0  0  0  0
   10.0471   -3.2237   -0.6533 H   0  0  0  0  0  0  0  0  0  0  0  0
   12.3270   -2.2931   -0.4814 H   0  0  0  0  0  0  0  0  0  0  0  0
   14.9687    1.8221    0.6857 H   0  0  0  0  0  0  0  0  0  0  0  0
   15.3592    0.7060    2.0097 H   0  0  0  0  0  0  0  0  0  0  0  0
   14.6931    2.3166    2.3747 H   0  0  0  0  0  0  0  0  0  0  0  0
   12.4919    2.3675    2.8145 H   0  0  0  0  0  0  0  0  0  0  0  0
    8.5734   -0.0752    1.9075 H   0  0  0  0  0  0  0  0  0  0  0  0
    6.2591   -1.1794    2.7155 H   0  0  0  0  0  0  0  0  0  0  0  0
 33  1  1  0
  1  2  2  0
  2  3  1  0
  3  4  2  0
  3  5  1  0
  5 34  1  0
  5  6  1  0
  6 35  1  1
  6  7  1  0
  7  8  2  0
  7  9  1  0
  6 10  1  0
 10 36  1  0
 10 37  1  0
 10 11  1  0
 11 38  1  0
 11 39  1  0
 11 12  1  0
 12 13  2  0
 12 14  1  0
  2 15  1  0
 15 16  1  0
 16 17  1  0
 17 18  1  0
 18 40  1  0
 18 41  1  0
 18 42  1  0
 17 19  1  0
 19 43  1  0
 19 44  1  0
 19 20  1  0
 20 21  2  0
 21 45  1  0
 21 22  1  0
 22 46  1  0
 22 23  2  0
 23 24  1  0
 24 25  2  0
 25 26  1  0
 26 47  1  0
 26 48  1  0
 26 49  1  0
 25 27  1  0
 27 50  1  0
 27 28  1  0
 28 29  2  0
 23 30  1  0
 28 30  1  0
 20 31  1  0
 30 31  2  0
 31 51  1  0
  1 32  1  0
 16 32  2  0
 32 52  1  0
M  CHG  2   9  -1  14  -1
M  END
>  <conformer_energy>  (1) 
81.71

>  <ligand_smiles>  (1) 
Cc1nc2ccc(CN(C)c3ccc(C(=O)N[C@@H](CCC(=O)[O-])C(=O)[O-])s3)cc2c(=O)[nH]1

>  <ligand_conf_name>  (1) 
1HVY - prepared_ligand7_conf_0

>  <ligand_molecule_name>  (1) 
1HVY - prepared_ligand7

>  <fragInfo>  (1) 
20 21 22 23 24 25 26 27 28 29 30 31 45 46 47 48 49 50 51
1 2 15 16 32 33 52
3 4 5 34
6 35
7 8 9
10 36 37
11 38 39
12 13 14
17 18 40 41 42
19 43 44


>  <torsionInfo>  (1) 
19 20 9 0
2 3 1 2
16 17 1 8
5 6 2 3
6 7 3 4
6 10 3 5
10 11 5 6
11 12 6 7
17 19 8 9


>  <atomInfo>  (1) 
1  -0.036363 A 
2  0.093961  A 
3  0.261446  C 
4  -0.268359 OA
5  -0.343304 N 
6  0.069225  C 
7  0.063842  C 
8  -0.547897 OA
9  -0.547897 OA
10 -0.022095 C 
11 -0.010810 C 
12 0.041475  C 
13 -0.550170 OA
14 -0.550170 OA
15 -0.112963 S 
16 0.091674  A 
17 -0.362167 N 
18 0.007560  C 
19 0.043344  C 
20 -0.027714 A 
21 -0.055056 A 
22 -0.035186 A 
23 0.077830  A 
24 -0.235001 NA
25 0.105912  A 
26 -0.006140 C 
27 -0.310234 N 
28 0.258262  A 
29 -0.268804 OA
30 0.065791  A 
31 -0.042234 A 
32 -0.026675 A 
33 0.064076  H 
34 0.164029  HD
35 0.059295  H 
36 0.029538  H 
37 0.029538  H 
38 0.032939  H 
39 0.032939  H 
40 0.045655  H 
41 0.045655  H 
42 0.045655  H 
43 0.054413  H 
44 0.054413  H 
45 0.062708  H 
46 0.064589  H 
47 0.031167  H 
48 0.031167  H 
49 0.031167  H 
50 0.171012  HD
51 0.063547  H 
52 0.065413  H 


$$$$
