MOL_0_isomer_0_conf_0
     RDKit          3D

 36 37  0  0  0  0  0  0  0  0999 V2000
   -2.5732    1.5972   -0.0261 C   0  0  0  0  0  0  0  0  0  0  0  0
   -1.9881    1.5559    1.1882 N   0  0  0  0  0  0  0  0  0  0  0  0
   -0.7649    0.9737    1.2598 C   0  0  0  0  0  0  0  0  0  0  0  0
   -0.0355    0.4445    0.1858 C   0  0  0  0  0  0  0  0  0  0  0  0
    1.2394   -0.0991    0.3163 N   0  0  0  0  0  0  0  0  0  0  0  0
    2.0091    0.0410    1.5533 C   0  0  0  0  0  0  0  0  0  0  0  0
    2.6530    1.4215    1.6523 C   0  0  0  0  0  0  0  0  0  0  0  0
    2.9888    2.1059    0.3319 C   0  0  0  0  0  0  0  0  0  0  0  0
    3.6894    1.2027   -0.6366 N   0  0  0  0  0  4  0  0  0  0  0  0
    2.7803    0.4262   -1.5663 C   0  0  0  0  0  0  0  0  0  0  0  0
    1.9749   -0.6593   -0.8288 C   0  0  0  0  0  0  0  0  0  0  0  0
   -0.7084    0.5197   -1.0436 C   0  0  0  0  0  0  0  0  0  0  0  0
   -1.9812    1.0930   -1.1687 C   0  0  0  0  0  0  0  0  0  0  0  0
   -2.4929    1.0982   -2.4346 O   0  0  0  0  0  0  0  0  0  0  0  0
   -3.8329    1.5736   -2.5831 C   0  0  0  0  0  0  0  0  0  0  0  0
   -4.2215    1.4284   -4.0433 C   0  0  0  0  0  0  0  0  0  0  0  0
   -3.5524    2.0635   -0.0273 H   0  0  0  0  0  0  0  0  0  0  0  0
   -0.3847    0.9560    2.2763 H   0  0  0  0  0  0  0  0  0  0  0  0
    1.4151   -0.1861    2.4456 H   0  0  0  0  0  0  0  0  0  0  0  0
    2.8106   -0.7095    1.5699 H   0  0  0  0  0  0  0  0  0  0  0  0
    3.5610    1.3370    2.2628 H   0  0  0  0  0  0  0  0  0  0  0  0
    1.9860    2.0892    2.2120 H   0  0  0  0  0  0  0  0  0  0  0  0
    2.1061    2.5204   -0.1665 H   0  0  0  0  0  0  0  0  0  0  0  0
    3.6769    2.9371    0.5214 H   0  0  0  0  0  0  0  0  0  0  0  0
    4.2897    1.7919   -1.2285 H   0  0  0  0  0  0  0  0  0  0  0  0
    4.3263    0.5655   -0.1428 H   0  0  0  0  0  0  0  0  0  0  0  0
    2.1337    1.1572   -2.0621 H   0  0  0  0  0  0  0  0  0  0  0  0
    3.4329   -0.0308   -2.3167 H   0  0  0  0  0  0  0  0  0  0  0  0
    2.6749   -1.4257   -0.4713 H   0  0  0  0  0  0  0  0  0  0  0  0
    1.3172   -1.1932   -1.5229 H   0  0  0  0  0  0  0  0  0  0  0  0
   -0.2739    0.1301   -1.9577 H   0  0  0  0  0  0  0  0  0  0  0  0
   -4.5185    0.9796   -1.9677 H   0  0  0  0  0  0  0  0  0  0  0  0
   -3.8918    2.6306   -2.2992 H   0  0  0  0  0  0  0  0  0  0  0  0
   -5.2427    1.7813   -4.2120 H   0  0  0  0  0  0  0  0  0  0  0  0
   -4.1521    0.3819   -4.3583 H   0  0  0  0  0  0  0  0  0  0  0  0
   -3.5397    1.9994   -4.6823 H   0  0  0  0  0  0  0  0  0  0  0  0
 17  1  1  0
  1  2  2  0
  2  3  1  0
  3 18  1  0
  3  4  2  0
  4  5  1  0
  5  6  1  0
  6 19  1  0
  6 20  1  0
  6  7  1  0
  7 21  1  0
  7 22  1  0
  7  8  1  0
  8 23  1  0
  8 24  1  0
  8  9  1  0
  9 25  1  0
  9 26  1  0
  9 10  1  0
 10 27  1  0
 10 28  1  0
  5 11  1  0
 10 11  1  0
 11 29  1  0
 11 30  1  0
  4 12  1  0
 12 31  1  0
  1 13  1  0
 12 13  2  0
 13 14  1  0
 14 15  1  0
 15 32  1  0
 15 33  1  0
 15 16  1  0
 16 34  1  0
 16 35  1  0
 16 36  1  0
M  CHG  1   9   1
M  END
>  <conformer_energy>  (1) 
90.22

>  <ligand_smiles>  (1) 
CCOc1cncc(N2CCC[NH2+]CC2)c1

>  <ligand_conf_name>  (1) 
MOL_0_isomer_0_conf_0

>  <ligand_molecule_name>  (1) 
MOL_0_isomer_0

$$$$
