MOL_0_isomer_0_conf_0
     RDKit          3D

 40 41  0  0  0  0  0  0  0  0999 V2000
    2.0683   -2.5216   -0.1341 C   0  0  0  0  0  0  0  0  0  0  0  0
    2.4272   -3.8351    0.1890 C   0  0  0  0  0  0  0  0  0  0  0  0
    2.2362   -5.0386   -1.0332 Cl  0  0  0  0  0  0  0  0  0  0  0  0
    2.9557   -4.1130    1.4487 C   0  0  0  0  0  0  0  0  0  0  0  0
    3.3166   -5.4874    1.8435 C   0  0  0  0  0  0  0  0  0  0  0  0
    2.5648   -6.4429    1.7844 O   0  0  0  0  0  0  0  0  0  0  0  0
    4.6004   -5.4817    2.2799 O   0  0  0  0  0  0  0  0  0  0  0  0
    5.0776   -6.7695    2.6732 C   0  0  0  0  0  0  0  0  0  0  0  0
    3.1292   -3.0781    2.3792 C   0  0  0  0  0  0  0  0  0  0  0  0
    2.7670   -1.7619    2.0506 C   0  0  0  0  0  0  0  0  0  0  0  0
    3.0040   -0.4755    3.2461 S   0  0  0  0  0  6  0  0  0  0  0  0
    1.7130    0.0075    3.6750 O   0  0  0  0  0  0  0  0  0  0  0  0
    4.0804    0.3802    2.8090 O   0  0  0  0  0  0  0  0  0  0  0  0
    3.6214   -1.2603    4.6057 N   0  0  0  0  0  0  0  0  0  0  0  0
    2.2152   -1.4727    0.7916 C   0  0  0  0  0  0  0  0  0  0  0  0
    1.7453    0.1682    0.2511 S   0  0  0  0  0  0  0  0  0  0  0  0
   -0.0688   -0.0384    0.0175 C   0  0  0  0  0  0  0  0  0  0  0  0
   -0.7869   -0.1867    1.3639 C   0  0  0  0  0  0  0  0  0  0  0  0
   -2.3023   -0.2641    1.1783 C   0  0  0  0  0  0  0  0  0  0  0  0
   -2.8366    0.9319    0.3967 C   0  0  0  0  0  0  0  0  0  0  0  0
   -2.1163    1.0973   -0.9376 C   0  0  0  0  0  0  0  0  0  0  0  0
   -0.6010    1.1772   -0.7536 C   0  0  0  0  0  0  0  0  0  0  0  0
    1.6818   -2.3142   -1.1315 H   0  0  0  0  0  0  0  0  0  0  0  0
    6.1182   -6.6624    2.9916 H   0  0  0  0  0  0  0  0  0  0  0  0
    5.0431   -7.4658    1.8293 H   0  0  0  0  0  0  0  0  0  0  0  0
    4.4943   -7.1522    3.5165 H   0  0  0  0  0  0  0  0  0  0  0  0
    3.5443   -3.3166    3.3559 H   0  0  0  0  0  0  0  0  0  0  0  0
    2.9706   -1.1273    5.3828 H   0  0  0  0  0  0  0  0  0  0  0  0
    4.5534   -0.8874    4.8007 H   0  0  0  0  0  0  0  0  0  0  0  0
   -0.2457   -0.9332   -0.5903 H   0  0  0  0  0  0  0  0  0  0  0  0
   -0.4540   -1.0922    1.8842 H   0  0  0  0  0  0  0  0  0  0  0  0
   -0.5563    0.6661    2.0154 H   0  0  0  0  0  0  0  0  0  0  0  0
   -2.7909   -0.3116    2.1581 H   0  0  0  0  0  0  0  0  0  0  0  0
   -2.5575   -1.1904    0.6488 H   0  0  0  0  0  0  0  0  0  0  0  0
   -2.7113    1.8433    0.9942 H   0  0  0  0  0  0  0  0  0  0  0  0
   -3.9116    0.8090    0.2232 H   0  0  0  0  0  0  0  0  0  0  0  0
   -2.3600    0.2513   -1.5921 H   0  0  0  0  0  0  0  0  0  0  0  0
   -2.4744    2.0031   -1.4398 H   0  0  0  0  0  0  0  0  0  0  0  0
   -0.3606    2.1066   -0.2201 H   0  0  0  0  0  0  0  0  0  0  0  0
   -0.1283    1.2402   -1.7416 H   0  0  0  0  0  0  0  0  0  0  0  0
 23  1  1  0
  1  2  2  0
  2  3  1  0
  2  4  1  0
  4  5  1  0
  5  6  2  0
  5  7  1  0
  7  8  1  0
  8 24  1  0
  8 25  1  0
  8 26  1  0
  4  9  2  0
  9 27  1  0
  9 10  1  0
 10 11  1  0
 11 12  2  0
 11 13  2  0
 11 14  1  0
 14 28  1  0
 14 29  1  0
  1 15  1  0
 10 15  2  0
 15 16  1  0
 16 17  1  0
 17 30  1  0
 17 18  1  0
 18 31  1  0
 18 32  1  0
 18 19  1  0
 19 33  1  0
 19 34  1  0
 19 20  1  0
 20 35  1  0
 20 36  1  0
 20 21  1  0
 21 37  1  0
 21 38  1  0
 17 22  1  0
 21 22  1  0
 22 39  1  0
 22 40  1  0
M  END
>  <conformer_energy>  (1) 
-58.19

>  <ligand_smiles>  (1) 
COC(=O)c1cc(S(N)(=O)=O)c(SC2CCCCC2)cc1Cl

>  <ligand_conf_name>  (1) 
MOL_0_isomer_0_conf_0

>  <ligand_molecule_name>  (1) 
MOL_0_isomer_0

$$$$
