MOL_0_isomer_0_conf_0
     RDKit          3D

 57 60  0  0  0  0  0  0  0  0999 V2000
   -5.7941    2.2913    6.1505 C   0  0  0  0  0  0  0  0  0  0  0  0
   -4.6650    2.9378    6.5344 N   0  0  0  0  0  0  0  0  0  0  0  0
   -3.9356    3.5443    5.5724 C   0  0  0  0  0  0  0  0  0  0  0  0
   -2.8018    4.1915    6.0592 N   0  0  0  0  0  0  0  0  0  0  0  0
   -1.8154    4.8275    5.3437 C   0  0  0  0  0  0  0  0  0  0  0  0
   -1.7109    4.8916    4.1232 O   0  0  0  0  0  0  0  0  0  0  0  0
   -0.8041    5.5264    6.1806 C   0  0  0  0  0  0  0  0  0  0  0  0
   -1.2938    6.4910    7.0752 C   0  0  0  0  0  0  0  0  0  0  0  0
   -0.4093    7.3478    7.7218 C   0  0  0  0  0  0  0  0  0  0  0  0
   -1.0193    8.5316    8.8114 Cl  0  0  0  0  0  0  0  0  0  0  0  0
    0.9599    7.2847    7.4697 C   0  0  0  0  0  0  0  0  0  0  0  0
    1.4589    6.3314    6.5785 C   0  0  0  0  0  0  0  0  0  0  0  0
    2.7894    6.1845    6.2534 O   0  0  0  0  0  0  0  0  0  0  0  0
    3.7132    7.0798    6.8656 C   0  0  0  0  0  0  0  0  0  0  0  0
    0.5811    5.4135    5.9550 C   0  0  0  0  0  0  0  0  0  0  0  0
    1.1979    4.4464    5.1251 N   0  0  0  0  0  0  0  0  0  0  0  0
    0.7381    3.1733    4.8503 C   0  0  0  0  0  0  0  0  0  0  0  0
   -0.1668    2.6496    5.4954 O   0  0  0  0  0  0  0  0  0  0  0  0
    1.4455    2.4640    3.7833 C   0  0  0  0  0  0  0  0  0  0  0  0
    2.7174    3.2122    2.9075 S   0  0  0  0  0  0  0  0  0  0  0  0
    2.9195    1.8598    1.8927 C   0  0  0  0  0  0  0  0  0  0  0  0
    2.0434    0.8300    2.1839 C   0  0  0  0  0  0  0  0  0  0  0  0
    1.9872   -0.4590    1.4196 C   0  0  0  0  0  0  0  0  0  0  0  0
    1.3632   -0.2102    0.1085 N   0  0  0  0  0  0  0  0  0  0  0  0
    0.0567   -0.0990   -0.0584 C   0  0  0  0  0  0  0  0  0  0  0  0
   -0.8776   -0.1764    0.8625 N   0  0  0  0  0  4  0  0  0  0  0  0
   -2.1774   -0.0345    0.2436 C   0  0  0  0  0  0  0  0  0  0  0  0
   -1.7782    0.5119   -1.1080 C   0  0  0  0  0  0  0  0  0  0  0  0
   -0.4113    0.1075   -1.2976 O   0  0  0  0  0  0  0  0  0  0  0  0
    2.2414   -0.1010   -1.0717 C   0  0  0  0  0  0  0  0  0  0  0  0
    1.2171    1.1808    3.3121 C   0  0  0  0  0  0  0  0  0  0  0  0
    0.0490    0.0820    3.9414 Cl  0  0  0  0  0  0  0  0  0  0  0  0
   -4.3124    3.5333    4.2347 C   0  0  0  0  0  0  0  0  0  0  0  0
   -5.4810    2.8634    3.8652 C   0  0  0  0  0  0  0  0  0  0  0  0
   -6.2347    2.2259    4.8403 C   0  0  0  0  0  0  0  0  0  0  0  0
   -7.6670    1.3804    4.4248 Cl  0  0  0  0  0  0  0  0  0  0  0  0
   -6.3463    1.8158    6.9564 H   0  0  0  0  0  0  0  0  0  0  0  0
   -2.7104    4.1009    7.0628 H   0  0  0  0  0  0  0  0  0  0  0  0
   -2.3644    6.6122    7.2283 H   0  0  0  0  0  0  0  0  0  0  0  0
    1.6105    7.9889    7.9781 H   0  0  0  0  0  0  0  0  0  0  0  0
    4.7125    6.8304    6.4961 H   0  0  0  0  0  0  0  0  0  0  0  0
    3.7194    6.9551    7.9533 H   0  0  0  0  0  0  0  0  0  0  0  0
    3.5027    8.1166    6.5838 H   0  0  0  0  0  0  0  0  0  0  0  0
    2.1407    4.6772    4.8265 H   0  0  0  0  0  0  0  0  0  0  0  0
    3.6745    1.8936    1.1174 H   0  0  0  0  0  0  0  0  0  0  0  0
    3.0000   -0.8555    1.2799 H   0  0  0  0  0  0  0  0  0  0  0  0
    1.4270   -1.2428    1.9381 H   0  0  0  0  0  0  0  0  0  0  0  0
   -0.6779   -0.3110    1.8429 H   0  0  0  0  0  0  0  0  0  0  0  0
   -2.6451   -1.0204    0.1694 H   0  0  0  0  0  0  0  0  0  0  0  0
   -2.8180    0.6471    0.8081 H   0  0  0  0  0  0  0  0  0  0  0  0
   -1.8130    1.6067   -1.1243 H   0  0  0  0  0  0  0  0  0  0  0  0
   -2.4009    0.1233   -1.9183 H   0  0  0  0  0  0  0  0  0  0  0  0
    3.2941   -0.1438   -0.7769 H   0  0  0  0  0  0  0  0  0  0  0  0
    2.0656    0.8557   -1.5733 H   0  0  0  0  0  0  0  0  0  0  0  0
    2.0349   -0.9295   -1.7558 H   0  0  0  0  0  0  0  0  0  0  0  0
   -3.7352    4.0429    3.4728 H   0  0  0  0  0  0  0  0  0  0  0  0
   -5.7958    2.8553    2.8262 H   0  0  0  0  0  0  0  0  0  0  0  0
 37  1  1  0
  1  2  2  0
  2  3  1  0
  3  4  1  0
  4 38  1  0
  4  5  1  0
  5  6  2  0
  5  7  1  0
  7  8  2  0
  8 39  1  0
  8  9  1  0
  9 10  1  0
  9 11  2  0
 11 40  1  0
 11 12  1  0
 12 13  1  0
 13 14  1  0
 14 41  1  0
 14 42  1  0
 14 43  1  0
  7 15  1  0
 12 15  2  0
 15 16  1  0
 16 44  1  0
 16 17  1  0
 17 18  2  0
 17 19  1  0
 19 20  1  0
 20 21  1  0
 21 45  1  0
 21 22  2  0
 22 23  1  0
 23 46  1  0
 23 47  1  0
 23 24  1  0
 24 25  1  0
 25 26  2  0
 26 48  1  0
 26 27  1  0
 27 49  1  0
 27 50  1  0
 27 28  1  0
 28 51  1  0
 28 52  1  0
 25 29  1  0
 28 29  1  0
 24 30  1  0
 30 53  1  0
 30 54  1  0
 30 55  1  0
 19 31  2  0
 22 31  1  0
 31 32  1  0
  3 33  2  0
 33 56  1  0
 33 34  1  0
 34 57  1  0
  1 35  1  0
 34 35  2  0
 35 36  1  0
M  CHG  1  26   1
M  END
>  <conformer_energy>  (1) 
-67.04

>  <ligand_smiles>  (1) 
COc1cc(Cl)cc(C(=O)Nc2ccc(Cl)cn2)c1NC(=O)c1scc(CN(C)C2=[NH+]CCO2)c1Cl

>  <ligand_conf_name>  (1) 
MOL_0_isomer_0_conf_0

>  <ligand_molecule_name>  (1) 
MOL_0_isomer_0

$$$$
