MOL_0_isomer_0_conf_0
     RDKit          3D

 85 89  0  0  0  0  0  0  0  0999 V2000
   -0.2913    1.7379   -0.7474 O   0  0  0  0  0  0  0  0  0  0  0  0
   -1.1451    1.3549    0.3307 C   0  0  2  0  0  0  0  0  0  0  0  0
   -1.2542   -0.1687    0.2854 C   0  0  0  0  0  0  0  0  0  0  0  0
   -2.4908   -0.7707   -0.3212 C   0  0  0  0  0  0  0  0  0  0  0  0
   -0.1867   -0.8942    0.6997 C   0  0  0  0  0  0  0  0  0  0  0  0
    0.0228   -2.4060    0.7054 C   0  0  1  0  0  0  0  0  0  0  0  0
    0.9222   -2.8826   -0.4565 C   0  0  0  0  0  0  0  0  0  0  0  0
    0.7858   -2.0792   -1.7371 C   0  0  0  0  0  0  0  0  0  0  0  0
    1.7108   -3.9870   -0.3501 C   0  0  0  0  0  0  0  0  0  0  0  0
    2.6173   -4.5620   -1.4349 C   0  0  1  0  0  0  0  0  0  0  0  0
    1.8807   -4.8251   -2.6280 O   0  0  0  0  0  0  0  0  0  0  0  0
    2.7093   -4.6593   -3.7031 C   0  0  0  0  0  0  0  0  0  0  0  0
    2.3716   -4.8647   -4.8566 O   0  0  0  0  0  0  0  0  0  0  0  0
    4.0770   -4.2182   -3.2428 C   0  0  1  0  0  0  0  0  0  0  0  0
    4.6912   -3.1707   -4.1516 C   0  0  0  0  0  0  0  0  0  0  0  0
    3.7835   -3.6885   -1.8523 C   0  0  0  0  0  0  0  0  0  0  0  0
    1.7415   -4.8375    0.9057 C   0  0  0  0  0  0  0  0  0  0  0  0
    0.7149   -4.4578    1.9693 C   0  0  0  0  0  0  0  0  0  0  0  0
    0.5146   -2.9269    2.1148 C   0  0  2  0  0  0  0  0  0  0  0  0
   -0.5805   -2.7300    3.1989 C   0  0  0  0  0  0  0  0  0  0  0  0
   -0.2718   -2.1522    4.3114 N   0  0  0  0  0  4  0  0  0  0  0  0
    1.0421   -1.6635    4.7741 C   0  0  0  0  0  0  0  0  0  0  0  0
    2.1371   -2.3908    4.0260 C   0  0  0  0  0  0  0  0  0  0  0  0
    1.8726   -2.2630    2.5333 C   0  0  0  0  0  0  0  0  0  0  0  0
   -1.9901   -3.3123    3.0619 C   0  0  0  0  0  0  0  0  0  0  0  0
   -3.0437   -2.9943    4.1371 C   0  0  0  0  0  0  0  0  0  0  0  0
   -3.4256   -1.5465    4.0861 C   0  0  0  0  0  0  0  0  0  0  0  0
   -3.4335   -0.6017    5.0533 C   0  0  0  0  0  0  0  0  0  0  0  0
   -3.1340   -0.8648    6.5054 C   0  0  0  0  0  0  0  0  0  0  0  0
   -3.8319    0.8546    4.7481 C   0  0  2  0  0  0  0  0  0  0  0  0
   -4.2045    0.9606    3.3582 O   0  0  0  0  0  0  0  0  0  0  0  0
   -3.0885    1.5324    2.6628 C   0  0  1  0  0  0  0  0  0  0  0  0
   -3.5282    1.9587    1.2738 C   0  0  0  0  0  0  0  0  0  0  0  0
   -2.3997    2.2485    0.2836 C   0  0  0  0  0  0  0  0  0  0  0  0
   -2.6236    2.6142    3.6082 C   0  0  0  0  0  0  0  0  0  0  0  0
   -2.6740    1.8621    4.9370 C   0  0  1  0  0  0  0  0  0  0  0  0
   -2.8720    2.7862    6.1292 C   0  0  0  0  0  0  0  0  0  0  0  0
   -0.7434    1.5065   -1.5775 H   0  0  0  0  0  0  0  0  0  0  0  0
   -0.6012    1.6268    1.2450 H   0  0  0  0  0  0  0  0  0  0  0  0
   -2.8272   -0.1812   -1.1800 H   0  0  0  0  0  0  0  0  0  0  0  0
   -3.2958   -0.8189    0.4162 H   0  0  0  0  0  0  0  0  0  0  0  0
   -2.3284   -1.7847   -0.6953 H   0  0  0  0  0  0  0  0  0  0  0  0
    0.6892   -0.3048    0.9715 H   0  0  0  0  0  0  0  0  0  0  0  0
   -0.9466   -2.8762    0.5043 H   0  0  0  0  0  0  0  0  0  0  0  0
    1.1832   -1.0682   -1.6013 H   0  0  0  0  0  0  0  0  0  0  0  0
   -0.2664   -2.0130   -2.0311 H   0  0  0  0  0  0  0  0  0  0  0  0
    1.3108   -2.5003   -2.5925 H   0  0  0  0  0  0  0  0  0  0  0  0
    3.0059   -5.5352   -1.1049 H   0  0  0  0  0  0  0  0  0  0  0  0
    4.7163   -5.1070   -3.1880 H   0  0  0  0  0  0  0  0  0  0  0  0
    5.6381   -2.8054   -3.7417 H   0  0  0  0  0  0  0  0  0  0  0  0
    4.0214   -2.3143   -4.2878 H   0  0  0  0  0  0  0  0  0  0  0  0
    4.8887   -3.5890   -5.1444 H   0  0  0  0  0  0  0  0  0  0  0  0
    4.6385   -3.7863   -1.1753 H   0  0  0  0  0  0  0  0  0  0  0  0
    3.5160   -2.6266   -1.8858 H   0  0  0  0  0  0  0  0  0  0  0  0
    2.7498   -4.7942    1.3357 H   0  0  0  0  0  0  0  0  0  0  0  0
    1.5668   -5.8880    0.6389 H   0  0  0  0  0  0  0  0  0  0  0  0
    0.9939   -4.9144    2.9268 H   0  0  0  0  0  0  0  0  0  0  0  0
   -0.2352   -4.9305    1.6869 H   0  0  0  0  0  0  0  0  0  0  0  0
   -1.0112   -1.9882    5.0006 H   0  0  0  0  0  0  0  0  0  0  0  0
    1.1054   -1.8621    5.8480 H   0  0  0  0  0  0  0  0  0  0  0  0
    1.0623   -0.5821    4.6074 H   0  0  0  0  0  0  0  0  0  0  0  0
    2.1817   -3.4456    4.3212 H   0  0  0  0  0  0  0  0  0  0  0  0
    3.1084   -1.9486    4.2749 H   0  0  0  0  0  0  0  0  0  0  0  0
    1.8844   -1.1934    2.3081 H   0  0  0  0  0  0  0  0  0  0  0  0
    2.7229   -2.6771    1.9841 H   0  0  0  0  0  0  0  0  0  0  0  0
   -1.8789   -4.4030    3.0432 H   0  0  0  0  0  0  0  0  0  0  0  0
   -2.3864   -3.0249    2.0824 H   0  0  0  0  0  0  0  0  0  0  0  0
   -2.6882   -3.3051    5.1233 H   0  0  0  0  0  0  0  0  0  0  0  0
   -3.9423   -3.5884    3.9304 H   0  0  0  0  0  0  0  0  0  0  0  0
   -3.7711   -1.2534    3.0910 H   0  0  0  0  0  0  0  0  0  0  0  0
   -2.1984   -0.3787    6.7984 H   0  0  0  0  0  0  0  0  0  0  0  0
   -3.0417   -1.9290    6.7350 H   0  0  0  0  0  0  0  0  0  0  0  0
   -3.9404   -0.4729    7.1344 H   0  0  0  0  0  0  0  0  0  0  0  0
   -4.7170    1.1181    5.3379 H   0  0  0  0  0  0  0  0  0  0  0  0
   -2.3290    0.7476    2.5945 H   0  0  0  0  0  0  0  0  0  0  0  0
   -4.1822    2.8377    1.3428 H   0  0  0  0  0  0  0  0  0  0  0  0
   -4.1753    1.1793    0.8543 H   0  0  0  0  0  0  0  0  0  0  0  0
   -2.8163    2.2490   -0.7325 H   0  0  0  0  0  0  0  0  0  0  0  0
   -2.0666    3.2845    0.4377 H   0  0  0  0  0  0  0  0  0  0  0  0
   -3.3255    3.4566    3.6138 H   0  0  0  0  0  0  0  0  0  0  0  0
   -1.6248    2.9912    3.3710 H   0  0  0  0  0  0  0  0  0  0  0  0
   -1.7227    1.3300    5.0721 H   0  0  0  0  0  0  0  0  0  0  0  0
   -2.0484    3.5040    6.2014 H   0  0  0  0  0  0  0  0  0  0  0  0
   -2.9063    2.2151    7.0624 H   0  0  0  0  0  0  0  0  0  0  0  0
   -3.8060    3.3519    6.0459 H   0  0  0  0  0  0  0  0  0  0  0  0
 38  1  1  0
  1  2  1  0
  2 39  1  1
  2  3  1  0
  3  4  1  0
  4 40  1  0
  4 41  1  0
  4 42  1  0
  3  5  2  0
  5 43  1  0
  5  6  1  0
  6 44  1  6
  6  7  1  0
  7  8  1  0
  8 45  1  0
  8 46  1  0
  8 47  1  0
  7  9  2  0
  9 10  1  0
 10 48  1  1
 10 11  1  0
 11 12  1  0
 12 13  2  0
 12 14  1  0
 14 49  1  1
 14 15  1  0
 15 50  1  0
 15 51  1  0
 15 52  1  0
 10 16  1  0
 14 16  1  0
 16 53  1  0
 16 54  1  0
  9 17  1  0
 17 55  1  0
 17 56  1  0
 17 18  1  0
 18 57  1  0
 18 58  1  0
  6 19  1  0
 19 18  1  6
 19 20  1  0
 20 21  2  0
 21 59  1  0
 21 22  1  0
 22 60  1  0
 22 61  1  0
 22 23  1  0
 23 62  1  0
 23 63  1  0
 19 24  1  0
 23 24  1  0
 24 64  1  0
 24 65  1  0
 20 25  1  0
 25 66  1  0
 25 67  1  0
 25 26  1  0
 26 68  1  0
 26 69  1  0
 26 27  1  0
 27 70  1  0
 27 28  2  0
 28 29  1  0
 29 71  1  0
 29 72  1  0
 29 73  1  0
 28 30  1  0
 30 74  1  1
 30 31  1  0
 31 32  1  0
 32 75  1  6
 32 33  1  0
 33 76  1  0
 33 77  1  0
  2 34  1  0
 33 34  1  0
 34 78  1  0
 34 79  1  0
 32 35  1  0
 35 80  1  0
 35 81  1  0
 30 36  1  0
 35 36  1  0
 36 82  1  1
 36 37  1  0
 37 83  1  0
 37 84  1  0
 37 85  1  0
M  CHG  1  21   1
M  END
>  <conformer_energy>  (1) 
82.16

>  <ligand_smiles>  (1) 
CC1=C([C@@H]2C[C@H](C)C(=O)O2)CC[C@]23CCC[NH+]=C2CC/C=C(\C)[C@@H]2O[C@@H](CC[C@H](O)/C(C)=C/[C@@H]13)C[C@H]2C

>  <ligand_conf_name>  (1) 
MOL_0_isomer_0_conf_0

>  <ligand_molecule_name>  (1) 
MOL_0_isomer_0

$$$$
