MOL_0_isomer_0_conf_0
     RDKit          3D

 46 49  0  0  0  0  0  0  0  0999 V2000
   -1.5570   -6.5464   -3.9959 O   0  0  0  0  0  0  0  0  0  0  0  0
   -0.9933   -5.9389   -2.9131 C   0  0  0  0  0  0  0  0  0  0  0  0
   -1.3060   -6.4365   -1.6553 C   0  0  0  0  0  0  0  0  0  0  0  0
   -0.7522   -5.8431   -0.5194 C   0  0  0  0  0  0  0  0  0  0  0  0
    0.1211   -4.7475   -0.6345 C   0  0  0  0  0  0  0  0  0  0  0  0
    0.7227   -4.1315    0.6220 C   0  0  2  0  0  0  0  0  0  0  0  0
    1.2048   -2.8092    0.3528 O   0  0  0  0  0  0  0  0  0  0  0  0
    1.7667   -2.1822    1.4354 C   0  0  0  0  0  0  0  0  0  0  0  0
    1.7929   -0.7771    1.4080 C   0  0  0  0  0  0  0  0  0  0  0  0
    1.1968    0.0018    0.2603 C   0  0  0  0  0  0  0  0  0  0  0  0
   -0.2312    0.0081    0.2843 O   0  0  0  0  0  0  0  0  0  0  0  0
   -0.7718    0.8993    1.2486 C   0  0  0  0  0  0  0  0  0  0  0  0
    2.3634   -0.0888    2.4885 C   0  0  0  0  0  0  0  0  0  0  0  0
    2.8913   -0.7909    3.5636 C   0  0  0  0  0  0  0  0  0  0  0  0
    3.4201   -0.0690    4.5923 O   0  0  0  0  0  0  0  0  0  0  0  0
    2.8782   -2.1813    3.5846 C   0  0  0  0  0  0  0  0  0  0  0  0
    2.3341   -2.8960    2.5054 C   0  0  0  0  0  0  0  0  0  0  0  0
    2.3355   -4.4087    2.5238 C   0  0  2  0  0  0  0  0  0  0  0  0
    3.7225   -5.0434    2.6606 C   0  0  0  0  0  0  0  0  0  0  0  0
    4.2956   -5.0099    1.2515 C   0  0  0  0  0  0  0  0  0  0  0  0
    3.0940   -5.1346    0.3182 C   0  0  0  0  0  0  0  0  0  0  0  0
    1.8365   -5.0057    1.2024 C   0  0  2  0  0  0  0  0  0  0  0  0
    0.4217   -4.2638   -1.9183 C   0  0  0  0  0  0  0  0  0  0  0  0
   -0.1337   -4.8560   -3.0558 C   0  0  0  0  0  0  0  0  0  0  0  0
   -1.2714   -6.0735   -4.7946 H   0  0  0  0  0  0  0  0  0  0  0  0
   -1.9812   -7.2817   -1.5583 H   0  0  0  0  0  0  0  0  0  0  0  0
   -1.0101   -6.2411    0.4595 H   0  0  0  0  0  0  0  0  0  0  0  0
   -0.0988   -4.0361    1.3480 H   0  0  0  0  0  0  0  0  0  0  0  0
    1.5098   -0.4565   -0.6853 H   0  0  0  0  0  0  0  0  0  0  0  0
    1.5781    1.0304    0.2316 H   0  0  0  0  0  0  0  0  0  0  0  0
   -1.8594    0.9051    1.1350 H   0  0  0  0  0  0  0  0  0  0  0  0
   -0.4023    1.9166    1.0875 H   0  0  0  0  0  0  0  0  0  0  0  0
   -0.5380    0.5670    2.2638 H   0  0  0  0  0  0  0  0  0  0  0  0
    2.3892    0.9978    2.5012 H   0  0  0  0  0  0  0  0  0  0  0  0
    3.7559   -0.6844    5.2644 H   0  0  0  0  0  0  0  0  0  0  0  0
    3.2899   -2.7185    4.4339 H   0  0  0  0  0  0  0  0  0  0  0  0
    1.6847   -4.7270    3.3481 H   0  0  0  0  0  0  0  0  0  0  0  0
    4.3817   -4.5464    3.3779 H   0  0  0  0  0  0  0  0  0  0  0  0
    3.6156   -6.0879    2.9806 H   0  0  0  0  0  0  0  0  0  0  0  0
    4.8038   -4.0546    1.0739 H   0  0  0  0  0  0  0  0  0  0  0  0
    5.0276   -5.8069    1.0889 H   0  0  0  0  0  0  0  0  0  0  0  0
    3.0962   -6.1073   -0.1872 H   0  0  0  0  0  0  0  0  0  0  0  0
    3.1511   -4.3706   -0.4643 H   0  0  0  0  0  0  0  0  0  0  0  0
    1.4609   -6.0196    1.3999 H   0  0  0  0  0  0  0  0  0  0  0  0
    1.0918   -3.4151   -2.0415 H   0  0  0  0  0  0  0  0  0  0  0  0
    0.1156   -4.4575   -4.0339 H   0  0  0  0  0  0  0  0  0  0  0  0
 25  1  1  0
  1  2  1  0
  2  3  2  0
  3 26  1  0
  3  4  1  0
  4 27  1  0
  4  5  2  0
  5  6  1  0
  6 28  1  1
  6  7  1  0
  7  8  1  0
  8  9  2  0
  9 10  1  0
 10 29  1  0
 10 30  1  0
 10 11  1  0
 11 12  1  0
 12 31  1  0
 12 32  1  0
 12 33  1  0
  9 13  1  0
 13 34  1  0
 13 14  2  0
 14 15  1  0
 15 35  1  0
 14 16  1  0
 16 36  1  0
  8 17  1  0
 16 17  2  0
 17 18  1  0
 18 37  1  1
 18 19  1  0
 19 38  1  0
 19 39  1  0
 19 20  1  0
 20 40  1  0
 20 41  1  0
 20 21  1  0
 21 42  1  0
 21 43  1  0
  6 22  1  0
 18 22  1  0
 21 22  1  0
 22 44  1  1
  5 23  1  0
 23 45  1  0
  2 24  1  0
 23 24  2  0
 24 46  1  0
M  END
>  <conformer_energy>  (1) 
45.37

>  <ligand_smiles>  (1) 
COCc1cc(O)cc2c1O[C@@H](c1ccc(O)cc1)[C@H]1CCC[C@@H]21

>  <ligand_conf_name>  (1) 
MOL_0_isomer_0_conf_0

>  <ligand_molecule_name>  (1) 
MOL_0_isomer_0

$$$$
