MOL_0_isomer_0_conf_0
     RDKit          3D

 28 28  0  0  0  0  0  0  0  0999 V2000
    3.8706   -1.2594    0.2975 C   0  0  0  0  0  0  0  0  0  0  0  0
    4.6121   -0.1001   -0.0156 C   0  0  0  0  0  0  0  0  0  0  0  0
    6.0830   -0.2196   -0.0012 C   0  0  0  0  0  0  0  0  0  0  0  0
    6.7584   -0.5832   -1.5627 Cl  0  0  0  0  0  0  0  0  0  0  0  0
    6.8329   -0.1148    1.1128 C   0  0  0  0  0  0  0  0  0  0  0  0
    8.5570   -0.3072    1.1029 Cl  0  0  0  0  0  0  0  0  0  0  0  0
    6.1296    0.1993    2.6721 Cl  0  0  0  0  0  0  0  0  0  0  0  0
    3.9107    1.0724   -0.3323 C   0  0  0  0  0  0  0  0  0  0  0  0
    4.7446    2.5998   -0.7105 S   0  0  0  0  0  6  0  0  0  0  0  0
    5.9292    2.6913    0.1057 O   0  0  0  0  0  0  0  0  0  0  0  0
    3.7556    3.6528   -0.7377 O   0  0  0  0  0  0  0  0  0  0  0  0
    5.2066    2.3793   -2.3070 N   0  0  0  0  0  0  0  0  0  0  0  0
    2.5088    1.0827   -0.3073 C   0  0  0  0  0  0  0  0  0  0  0  0
    1.7977   -0.0831    0.0193 C   0  0  0  0  0  0  0  0  0  0  0  0
    0.0197    0.0107    0.0265 S   0  0  0  0  0  6  0  0  0  0  0  0
   -0.5173   -1.3052   -0.2369 O   0  0  0  0  0  0  0  0  0  0  0  0
   -0.3742    1.1687   -0.7426 O   0  0  0  0  0  0  0  0  0  0  0  0
   -0.3041    0.3876    1.6317 N   0  0  0  0  0  0  0  0  0  0  0  0
    2.4668   -1.2834    0.2896 C   0  0  0  0  0  0  0  0  0  0  0  0
    1.8281   -2.4495    0.6843 N   0  0  0  0  0  0  0  0  0  0  0  0
    4.4048   -2.1766    0.5504 H   0  0  0  0  0  0  0  0  0  0  0  0
    5.1455    1.4212   -2.6487 H   0  0  0  0  0  0  0  0  0  0  0  0
    4.7122    3.0434   -2.9061 H   0  0  0  0  0  0  0  0  0  0  0  0
    1.9651    2.0003   -0.5345 H   0  0  0  0  0  0  0  0  0  0  0  0
    0.4809    0.2211    2.2606 H   0  0  0  0  0  0  0  0  0  0  0  0
   -0.6774    1.3357    1.6992 H   0  0  0  0  0  0  0  0  0  0  0  0
    0.8263   -2.5479    0.4908 H   0  0  0  0  0  0  0  0  0  0  0  0
    2.3391   -3.3214    0.7516 H   0  0  0  0  0  0  0  0  0  0  0  0
 21  1  1  0
  1  2  2  0
  2  3  1  0
  3  4  1  0
  3  5  2  3
  5  6  1  0
  5  7  1  0
  2  8  1  0
  8  9  1  0
  9 10  2  0
  9 11  2  0
  9 12  1  0
 12 22  1  0
 12 23  1  0
  8 13  2  0
 13 24  1  0
 13 14  1  0
 14 15  1  0
 15 16  2  0
 15 17  2  0
 15 18  1  0
 18 25  1  0
 18 26  1  0
  1 19  1  0
 14 19  2  0
 19 20  1  0
 20 27  1  0
 20 28  1  0
M  END
>  <conformer_energy>  (1) 
-115.37

>  <ligand_smiles>  (1) 
Nc1cc(C(Cl)=C(Cl)Cl)c(S(N)(=O)=O)cc1S(N)(=O)=O

>  <ligand_conf_name>  (1) 
MOL_0_isomer_0_conf_0

>  <ligand_molecule_name>  (1) 
MOL_0_isomer_0

$$$$
