MOL_0_isomer_0_conf_0
     RDKit          3D

 35 37  0  0  0  0  0  0  0  0999 V2000
   -2.9634    2.1006   -7.3173 N   0  0  0  0  0  0  0  0  0  0  0  0
   -1.8390    2.2728   -6.5870 C   0  0  0  0  0  0  0  0  0  0  0  0
   -1.3114    1.2683   -5.9738 N   0  0  0  0  0  0  0  0  0  0  0  0
   -0.2093    1.4934   -5.1779 C   0  0  0  0  0  0  0  0  0  0  0  0
    0.4257    2.6960   -5.0994 C   0  0  0  0  0  0  0  0  0  0  0  0
   -0.1676    3.8184   -5.8848 C   0  0  0  0  0  0  0  0  0  0  0  0
    0.3311    4.9381   -5.9914 O   0  0  0  0  0  0  0  0  0  0  0  0
   -1.3225    3.5233   -6.5474 N   0  0  0  0  0  0  0  0  0  0  0  0
    1.5290    2.9426   -4.2779 N   0  0  0  0  0  0  0  0  0  0  0  0
    2.1534    1.8103   -3.5430 C   0  0  1  0  0  0  0  0  0  0  0  0
    2.8251    2.3024   -2.2625 C   0  0  0  0  0  0  0  0  0  0  0  0
    4.4845    2.6738   -2.2630 S   0  0  0  0  0  0  0  0  0  0  0  0
    1.9561    2.4720   -1.0092 C   0  0  1  0  0  0  0  0  0  0  0  0
    1.0247    4.0878   -1.1866 S   0  0  0  0  0  1  0  0  0  0  0  0
    1.1184    1.1640   -0.9132 C   0  0  1  0  0  0  0  0  0  0  0  0
    0.2701    1.0070    0.3567 C   0  0  0  0  0  0  0  0  0  0  0  0
   -0.2206   -0.3333    0.4617 O   0  0  0  0  0  0  0  0  0  0  0  0
    0.6374   -1.3967    1.3698 P   0  0  0  0  0  5  0  0  0  0  0  0
    0.5553   -0.8425    2.7863 O   0  0  0  0  0  0  0  0  0  0  0  0
    2.0374   -1.3795    0.7688 O   0  0  0  0  0  1  0  0  0  0  0  0
   -0.0991   -2.7180    1.1794 O   0  0  0  0  0  1  0  0  0  0  0  0
    0.2973    1.0037   -2.0983 O   0  0  0  0  0  0  0  0  0  0  0  0
    1.1169    0.6917   -3.2136 C   0  0  1  0  0  0  0  0  0  0  0  0
    0.2316    0.4575   -4.3608 N   0  0  0  0  0  0  0  0  0  0  0  0
   -3.4997    2.8658   -7.6855 H   0  0  0  0  0  0  0  0  0  0  0  0
   -3.3741    1.1769   -7.2711 H   0  0  0  0  0  0  0  0  0  0  0  0
   -1.7400    4.2853   -7.0451 H   0  0  0  0  0  0  0  0  0  0  0  0
    1.3991    3.7737   -3.6801 H   0  0  0  0  0  0  0  0  0  0  0  0
    2.9039    1.3803   -4.2194 H   0  0  0  0  0  0  0  0  0  0  0  0
    2.6092    2.5042   -0.1275 H   0  0  0  0  0  0  0  0  0  0  0  0
    1.8257    0.3258   -0.9129 H   0  0  0  0  0  0  0  0  0  0  0  0
   -0.6095    1.6563    0.3127 H   0  0  0  0  0  0  0  0  0  0  0  0
    0.8468    1.2667    1.2502 H   0  0  0  0  0  0  0  0  0  0  0  0
    1.6460   -0.2478   -3.0096 H   0  0  0  0  0  0  0  0  0  0  0  0
   -0.4846   -0.2303   -4.1695 H   0  0  0  0  0  0  0  0  0  0  0  0
 25  1  1  0
  1 26  1  0
  1  2  1  0
  2  3  2  0
  3  4  1  0
  4  5  2  0
  5  6  1  0
  6  7  2  0
  2  8  1  0
  6  8  1  0
  8 27  1  0
  5  9  1  0
  9 28  1  0
  9 10  1  0
 10 29  1  6
 10 11  1  0
 11 12  2  0
 11 13  1  0
 13 30  1  1
 13 14  1  0
 13 15  1  0
 15 31  1  1
 15 16  1  0
 16 32  1  0
 16 33  1  0
 16 17  1  0
 17 18  1  0
 18 19  2  0
 18 20  1  0
 18 21  1  0
 15 22  1  0
 10 23  1  0
 22 23  1  0
 23 34  1  1
  4 24  1  0
 23 24  1  0
 24 35  1  0
M  CHG  3  14  -1  20  -1  21  -1
M  END
>  <conformer_energy>  (1) 
73.79

>  <ligand_smiles>  (1) 
Nc1nc2c(c(=O)[nH]1)N[C@H]1C(=S)[C@@H]([S-])[C@@H](COP(=O)([O-])[O-])O[C@H]1N2

>  <ligand_conf_name>  (1) 
MOL_0_isomer_0_conf_0

>  <ligand_molecule_name>  (1) 
MOL_0_isomer_0

$$$$
