MOL_0_isomer_0_conf_0
     RDKit          3D

 23 22  0  0  0  0  0  0  0  0999 V2000
    4.9914    0.2646   -0.9675 C   0  0  0  0  0  0  0  0  0  0  0  0
    4.2022   -0.6303   -0.3496 C   0  0  0  0  0  0  0  0  0  0  0  0
    4.6625   -1.3938    0.8631 C   0  0  0  0  0  0  0  0  0  0  0  0
    2.7899   -0.9262   -0.8319 C   0  0  0  0  0  0  0  0  0  0  0  0
    1.7151   -0.7499    0.2451 C   0  0  0  0  0  0  0  0  0  0  0  0
    0.0702   -1.0170   -0.4706 S   0  0  0  0  0  0  0  0  0  0  0  0
   -1.1984   -0.2105    1.0297 P   0  0  1  0  0  5  0  0  0  0  0  0
   -0.8353    1.2707    1.0812 O   0  0  0  0  0  0  0  0  0  0  0  0
   -2.5986   -0.5031    0.4809 O   0  0  0  0  0  1  0  0  0  0  0  0
   -1.0414   -0.9305    2.4499 O   0  0  0  0  0  0  0  0  0  0  0  0
    0.1255   -1.6726    3.2812 P   0  0  0  0  0  5  0  0  0  0  0  0
    0.4361   -2.9611    2.5234 O   0  0  0  0  0  0  0  0  0  0  0  0
    1.3102   -0.7157    3.3583 O   0  0  0  0  0  1  0  0  0  0  0  0
   -0.4944   -1.9475    4.6542 O   0  0  0  0  0  1  0  0  0  0  0  0
    4.6346    0.8201   -1.8279 H   0  0  0  0  0  0  0  0  0  0  0  0
    5.9884    0.4804   -0.6023 H   0  0  0  0  0  0  0  0  0  0  0  0
    4.5187   -2.4688    0.7133 H   0  0  0  0  0  0  0  0  0  0  0  0
    4.1062   -1.0839    1.7529 H   0  0  0  0  0  0  0  0  0  0  0  0
    5.7264   -1.2300    1.0660 H   0  0  0  0  0  0  0  0  0  0  0  0
    2.5576   -0.2812   -1.6901 H   0  0  0  0  0  0  0  0  0  0  0  0
    2.7733   -1.9589   -1.2054 H   0  0  0  0  0  0  0  0  0  0  0  0
    1.8726   -1.4858    1.0318 H   0  0  0  0  0  0  0  0  0  0  0  0
    1.7662    0.2541    0.6769 H   0  0  0  0  0  0  0  0  0  0  0  0
 15  1  1  0
  1 16  1  0
  1  2  2  0
  2  3  1  0
  3 17  1  0
  3 18  1  0
  3 19  1  0
  2  4  1  0
  4 20  1  0
  4 21  1  0
  4  5  1  0
  5 22  1  0
  5 23  1  0
  5  6  1  0
  6  7  1  0
  7  8  2  0
  7  9  1  6
  7 10  1  0
 10 11  1  0
 11 12  2  0
 11 13  1  0
 11 14  1  0
M  CHG  3   9  -1  13  -1  14  -1
M  END
>  <conformer_energy>  (1) 
5.71

>  <ligand_smiles>  (1) 
C=C(C)CCS[P@@](=O)([O-])OP(=O)([O-])[O-]

>  <ligand_conf_name>  (1) 
MOL_0_isomer_0_conf_0

>  <ligand_molecule_name>  (1) 
MOL_0_isomer_0

$$$$
