MOL_0_isomer_0_conf_0
     RDKit          3D

 56 58  0  0  0  0  0  0  0  0999 V2000
   -1.5989   -5.8696   -5.5166 C   0  0  0  0  0  0  0  0  0  0  0  0
   -1.2534   -7.1031   -6.0842 C   0  0  0  0  0  0  0  0  0  0  0  0
   -0.4479   -8.0041   -5.3868 C   0  0  0  0  0  0  0  0  0  0  0  0
   -0.0666   -9.3197   -5.9948 C   0  0  0  0  0  0  0  0  0  0  0  0
    0.0338   -7.6350   -4.1283 C   0  0  0  0  0  0  0  0  0  0  0  0
   -0.2937   -6.3877   -3.5749 C   0  0  0  0  0  0  0  0  0  0  0  0
    0.1519   -6.1336   -2.3006 O   0  0  0  0  0  0  0  0  0  0  0  0
    1.5187   -5.6983   -2.3030 C   0  0  0  0  0  0  0  0  0  0  0  0
    1.8149   -5.1951   -0.8897 C   0  0  0  0  0  0  0  0  0  0  0  0
    2.7754   -4.0087   -0.8612 C   0  0  0  0  0  0  0  0  0  0  0  0
    2.4680   -3.1712    0.2793 O   0  0  0  0  0  0  0  0  0  0  0  0
    1.9101   -1.9820   -0.1238 C   0  0  0  0  0  0  0  0  0  0  0  0
    2.6538   -0.9999   -0.7856 C   0  0  0  0  0  0  0  0  0  0  0  0
    4.0125   -1.1477   -0.9941 N   0  0  0  0  0  0  0  0  0  0  0  0
    2.0895    0.0929   -1.3249 N   0  0  0  0  0  0  0  0  0  0  0  0
    0.7542    0.2000   -1.1971 C   0  0  0  0  0  0  0  0  0  0  0  0
    0.1139    1.2219   -1.8431 N   0  0  0  0  0  0  0  0  0  0  0  0
    0.0230   -0.6560   -0.4922 N   0  0  0  0  0  4  0  0  0  0  0  0
    0.5555   -1.7296    0.1030 C   0  0  0  0  0  0  0  0  0  0  0  0
   -0.3548   -2.5796    0.9375 C   0  0  0  0  0  0  0  0  0  0  0  0
   -0.0240   -2.4821    2.4208 C   0  0  0  0  0  0  0  0  0  0  0  0
   -1.1344   -5.4821   -4.2495 C   0  0  0  0  0  0  0  0  0  0  0  0
   -1.5040   -4.2262   -3.7400 N   0  0  0  0  0  0  0  0  0  0  0  0
   -2.6039   -3.3554   -4.0574 C   0  0  0  0  0  0  0  0  0  0  0  0
   -1.9208   -2.3329   -3.1424 C   0  0  0  0  0  0  0  0  0  0  0  0
   -2.7465   -1.5305   -2.1932 C   0  0  0  0  0  0  0  0  0  0  0  0
   -2.0911   -0.8151   -1.3501 O   0  0  0  0  0  0  0  0  0  0  0  0
   -4.0058   -1.5739   -2.2596 O   0  0  0  0  0  1  0  0  0  0  0  0
   -1.2359   -3.5569   -2.5149 C   0  0  0  0  0  0  0  0  0  0  0  0
   -2.2399   -5.2012   -6.0854 H   0  0  0  0  0  0  0  0  0  0  0  0
   -1.6334   -7.3529   -7.0729 H   0  0  0  0  0  0  0  0  0  0  0  0
   -0.8583   -9.6897   -6.6549 H   0  0  0  0  0  0  0  0  0  0  0  0
    0.0906  -10.0775   -5.2201 H   0  0  0  0  0  0  0  0  0  0  0  0
    0.8554   -9.2116   -6.5741 H   0  0  0  0  0  0  0  0  0  0  0  0
    0.6541   -8.3237   -3.5597 H   0  0  0  0  0  0  0  0  0  0  0  0
    1.6539   -4.9026   -3.0453 H   0  0  0  0  0  0  0  0  0  0  0  0
    2.1873   -6.5318   -2.5502 H   0  0  0  0  0  0  0  0  0  0  0  0
    2.2345   -6.0144   -0.2904 H   0  0  0  0  0  0  0  0  0  0  0  0
    0.8781   -4.9420   -0.3894 H   0  0  0  0  0  0  0  0  0  0  0  0
    2.7370   -3.4536   -1.8072 H   0  0  0  0  0  0  0  0  0  0  0  0
    3.8040   -4.3641   -0.7355 H   0  0  0  0  0  0  0  0  0  0  0  0
    4.4557   -0.3830   -1.4893 H   0  0  0  0  0  0  0  0  0  0  0  0
    4.5532   -1.6191   -0.2795 H   0  0  0  0  0  0  0  0  0  0  0  0
   -0.8995    1.2150   -1.9283 H   0  0  0  0  0  0  0  0  0  0  0  0
    0.6743    1.8108   -2.4418 H   0  0  0  0  0  0  0  0  0  0  0  0
   -1.0095   -0.5575   -0.5771 H   0  0  0  0  0  0  0  0  0  0  0  0
   -0.3133   -3.6201    0.6152 H   0  0  0  0  0  0  0  0  0  0  0  0
   -1.3954   -2.2647    0.7972 H   0  0  0  0  0  0  0  0  0  0  0  0
   -0.0934   -1.4474    2.7751 H   0  0  0  0  0  0  0  0  0  0  0  0
    0.9882   -2.8417    2.6332 H   0  0  0  0  0  0  0  0  0  0  0  0
   -0.7235   -3.0895    3.0051 H   0  0  0  0  0  0  0  0  0  0  0  0
   -2.6540   -3.0652   -5.1106 H   0  0  0  0  0  0  0  0  0  0  0  0
   -3.5610   -3.7710   -3.7247 H   0  0  0  0  0  0  0  0  0  0  0  0
   -1.2181   -1.6895   -3.6936 H   0  0  0  0  0  0  0  0  0  0  0  0
   -1.7409   -4.0241   -1.6631 H   0  0  0  0  0  0  0  0  0  0  0  0
   -0.1746   -3.4122   -2.3111 H   0  0  0  0  0  0  0  0  0  0  0  0
 30  1  1  0
  1  2  2  0
  2 31  1  0
  2  3  1  0
  3  4  1  0
  4 32  1  0
  4 33  1  0
  4 34  1  0
  3  5  2  0
  5 35  1  0
  5  6  1  0
  6  7  1  0
  7  8  1  0
  8 36  1  0
  8 37  1  0
  8  9  1  0
  9 38  1  0
  9 39  1  0
  9 10  1  0
 10 40  1  0
 10 41  1  0
 10 11  1  0
 11 12  1  0
 12 13  2  0
 13 14  1  0
 14 42  1  0
 14 43  1  0
 13 15  1  0
 15 16  2  0
 16 17  1  0
 17 44  1  0
 17 45  1  0
 16 18  1  0
 18 46  1  0
 12 19  1  0
 18 19  2  0
 19 20  1  0
 20 47  1  0
 20 48  1  0
 20 21  1  0
 21 49  1  0
 21 50  1  0
 21 51  1  0
  1 22  1  0
  6 22  2  0
 22 23  1  0
 23 24  1  0
 24 52  1  0
 24 53  1  0
 24 25  1  0
 25 54  1  0
 25 26  1  0
 26 27  2  0
 26 28  1  0
 23 29  1  0
 25 29  1  0
 29 55  1  0
 29 56  1  0
M  CHG  2  18   1  28  -1
M  END
>  <conformer_energy>  (1) 
-136.72

>  <ligand_smiles>  (1) 
CCc1[nH+]c(N)nc(N)c1OCCCOc1cc(C)ccc1N1CC(C(=O)[O-])C1

>  <ligand_conf_name>  (1) 
MOL_0_isomer_0_conf_0

>  <ligand_molecule_name>  (1) 
MOL_0_isomer_0

$$$$
