1L7F - prepared_ligand_conf_0
     RDKit          3D

 51 51  0  0  0  0  0  0  0  0999 V2000
    3.1014   -2.8913   -1.4050 O   0  0  0  0  0  0  0  0  0  0  0  0
    2.1735   -1.8461   -1.2002 C   0  0  1  0  0  0  0  0  0  0  0  0
    2.1956   -1.2211    0.2242 C   0  0  1  0  0  0  0  0  0  0  0  0
    3.5284   -1.3215    1.0382 C   0  0  1  0  0  0  0  0  0  0  0  0
    3.3563   -0.6375    2.3378 N   0  0  0  0  0  0  0  0  0  0  0  0
    3.8294    0.6312    2.5916 C   0  0  0  0  0  0  0  0  0  0  0  0
    4.3290    1.3594    1.7437 O   0  0  0  0  0  0  0  0  0  0  0  0
    3.6652    1.0514    4.0261 C   0  0  0  0  0  0  0  0  0  0  0  0
    4.0874   -2.7638    1.3206 C   0  0  0  0  0  0  0  0  0  0  0  0
    5.3620   -2.7536    2.2091 C   0  0  0  0  0  0  0  0  0  0  0  0
    6.5018   -1.9094    1.6522 C   0  0  0  0  0  0  0  0  0  0  0  0
    3.0065   -3.7087    1.9031 C   0  0  0  0  0  0  0  0  0  0  0  0
    3.4615   -5.1538    2.0693 C   0  0  0  0  0  0  0  0  0  0  0  0
    1.7871    0.2424   -0.0899 C   0  0  2  0  0  0  0  0  0  0  0  0
    0.3615    0.3897   -0.4817 N   0  0  0  0  0  0  0  0  0  0  0  0
   -0.7296   -0.2258   -0.0733 C   0  0  0  0  0  0  0  0  0  0  0  0
   -1.6967   -0.4489   -0.9607 N   0  0  0  0  0  0  0  0  0  0  0  0
   -0.8761   -0.6294    1.1875 N   0  0  0  0  0  0  0  0  0  0  0  0
    2.6159    0.5433   -1.3479 C   0  0  0  0  0  0  0  0  0  0  0  0
    2.4260   -0.7085   -2.2059 C   0  0  2  0  0  0  0  0  0  0  0  0
    1.1759   -0.7640   -3.1072 C   0  0  0  0  0  0  0  0  0  0  0  0
    1.1637   -1.7073   -3.9385 O   0  0  0  0  0  0  0  0  0  0  0  0
    0.2479    0.0659   -2.8365 O   0  0  0  0  0  0  0  0  0  0  0  0
    2.9968   -3.1532   -2.3442 H   0  0  0  0  0  0  0  0  0  0  0  0
    1.1818   -2.3009   -1.3285 H   0  0  0  0  0  0  0  0  0  0  0  0
    1.4139   -1.6950    0.8256 H   0  0  0  0  0  0  0  0  0  0  0  0
    4.3019   -0.7834    0.4801 H   0  0  0  0  0  0  0  0  0  0  0  0
    2.9810   -1.1717    3.1105 H   0  0  0  0  0  0  0  0  0  0  0  0
    4.3416    0.4672    4.6566 H   0  0  0  0  0  0  0  0  0  0  0  0
    2.6328    0.8894    4.3500 H   0  0  0  0  0  0  0  0  0  0  0  0
    3.9048    2.1136    4.1291 H   0  0  0  0  0  0  0  0  0  0  0  0
    4.4164   -3.1952    0.3711 H   0  0  0  0  0  0  0  0  0  0  0  0
    5.7458   -3.7757    2.3024 H   0  0  0  0  0  0  0  0  0  0  0  0
    5.1231   -2.4207    3.2258 H   0  0  0  0  0  0  0  0  0  0  0  0
    7.4047   -2.0596    2.2530 H   0  0  0  0  0  0  0  0  0  0  0  0
    6.2697   -0.8419    1.6758 H   0  0  0  0  0  0  0  0  0  0  0  0
    6.7324   -2.1929    0.6205 H   0  0  0  0  0  0  0  0  0  0  0  0
    2.1380   -3.7272    1.2365 H   0  0  0  0  0  0  0  0  0  0  0  0
    2.6558   -3.3384    2.8728 H   0  0  0  0  0  0  0  0  0  0  0  0
    3.8944   -5.5403    1.1414 H   0  0  0  0  0  0  0  0  0  0  0  0
    2.6066   -5.7857    2.3323 H   0  0  0  0  0  0  0  0  0  0  0  0
    4.1982   -5.2561    2.8711 H   0  0  0  0  0  0  0  0  0  0  0  0
    1.9726    0.9683    0.7012 H   0  0  0  0  0  0  0  0  0  0  0  0
    0.2465    0.7099   -1.4639 H   0  0  0  0  0  0  0  0  0  0  0  0
   -2.5529   -0.9376   -0.7685 H   0  0  0  0  0  0  0  0  0  0  0  0
   -1.4326   -0.2863   -1.9481 H   0  0  0  0  0  0  0  0  0  0  0  0
   -1.7073   -1.1125    1.4887 H   0  0  0  0  0  0  0  0  0  0  0  0
   -0.1580   -0.3945    1.8570 H   0  0  0  0  0  0  0  0  0  0  0  0
    2.2869    1.4542   -1.8587 H   0  0  0  0  0  0  0  0  0  0  0  0
    3.6736    0.6711   -1.0941 H   0  0  0  0  0  0  0  0  0  0  0  0
    3.3103   -0.8744   -2.8322 H   0  0  0  0  0  0  0  0  0  0  0  0
 24  1  1  0
  1  2  1  0
  2 25  1  6
  2  3  1  0
  3 26  1  1
  3  4  1  0
  4 27  1  6
  4  5  1  0
  5 28  1  0
  5  6  1  0
  6  7  2  0
  6  8  1  0
  8 29  1  0
  8 30  1  0
  8 31  1  0
  4  9  1  0
  9 32  1  0
  9 10  1  0
 10 33  1  0
 10 34  1  0
 10 11  1  0
 11 35  1  0
 11 36  1  0
 11 37  1  0
  9 12  1  0
 12 38  1  0
 12 39  1  0
 12 13  1  0
 13 40  1  0
 13 41  1  0
 13 42  1  0
  3 14  1  0
 14 43  1  1
 14 15  1  0
 15 44  1  0
 15 16  1  0
 16 17  1  0
 17 45  1  0
 17 46  1  0
 16 18  2  0
 18 47  1  0
 18 48  1  0
 14 19  1  0
 19 49  1  0
 19 50  1  0
  2 20  1  0
 19 20  1  0
 20 51  1  6
 20 21  1  0
 21 22  2  0
 21 23  1  0
M  CHG  2  18   1  23  -1
M  END
>  <conformer_energy>  (1) 
-265.33

>  <ligand_smiles>  (1) 
CCC(CC)[C@H](NC(C)=O)[C@@H]1[C@H](O)[C@@H](C(=O)[O-])C[C@H]1NC(N)=[NH2+]

>  <ligand_conf_name>  (1) 
1L7F - prepared_ligand_conf_0

>  <ligand_molecule_name>  (1) 
1L7F - prepared_ligand

$$$$
