MOL_0_isomer_0_conf_0
     RDKit          3D

 58 62  0  0  0  0  0  0  0  0999 V2000
    4.4699    4.3582   -7.0136 O   0  0  0  0  0  0  0  0  0  0  0  0
    3.0576    4.3780   -6.7900 C   0  0  1  0  0  0  0  0  0  0  0  0
    2.5468    2.9482   -6.6301 C   0  0  0  0  0  0  0  0  0  0  0  0
    2.7917    2.3891   -5.2222 C   0  0  0  0  0  0  0  0  0  0  0  0
    2.0359    3.2022   -4.1371 C   0  0  1  0  0  0  0  0  0  0  0  0
    0.6314    3.1335   -4.4372 O   0  0  0  0  0  0  0  0  0  0  0  0
    2.3207    2.6015   -2.7207 C   0  0  0  0  0  0  0  0  0  0  0  0
    1.6369    1.3626   -2.2142 C   0  0  0  0  0  0  0  0  0  0  0  0
    0.8061    0.9064   -3.0481 O   0  0  0  0  0  1  0  0  0  0  0  0
    1.9755    0.8975   -0.9822 C   0  0  0  0  0  0  0  0  0  0  0  0
    1.3451   -0.3493   -0.4553 C   0  0  0  0  0  0  0  0  0  0  0  0
    2.0343   -1.3474   -0.2242 O   0  0  0  0  0  0  0  0  0  0  0  0
   -0.1505   -0.2880   -0.1108 C   0  0  2  0  0  0  0  0  0  0  0  0
   -0.3130   -0.1157    1.4226 C   0  0  1  0  0  0  0  0  0  0  0  0
   -1.6851    0.5068    1.7593 C   0  0  0  0  0  0  0  0  0  0  0  0
   -1.8934    0.6656    3.2610 C   0  0  0  0  0  0  0  0  0  0  0  0
   -1.7317   -0.6665    3.9802 C   0  0  0  0  0  0  0  0  0  0  0  0
   -0.3680   -1.2826    3.6875 C   0  0  0  0  0  0  0  0  0  0  0  0
   -0.0754   -1.4408    2.1845 C   0  0  1  0  0  0  0  0  0  0  0  0
   -0.8421   -2.5854    1.5733 C   0  0  0  0  0  0  0  0  0  0  0  0
   -1.2030   -2.6102    0.2827 C   0  0  0  0  0  0  0  0  0  0  0  0
   -0.8843   -1.5158   -0.7127 C   0  0  1  0  0  0  0  0  0  0  0  0
   -2.1720   -1.0960   -1.4345 C   0  0  0  0  0  0  0  0  0  0  0  0
    2.9581    1.6073   -0.1228 C   0  0  0  0  0  0  0  0  0  0  0  0
    3.2291    1.2730    1.0287 O   0  0  0  0  0  0  0  0  0  0  0  0
    3.5356    2.7200   -0.6750 N   0  0  0  0  0  0  0  0  0  0  0  0
    3.2308    3.1952   -1.9186 C   0  0  0  0  0  0  0  0  0  0  0  0
    2.3460    4.6832   -4.2752 C   0  0  1  0  0  0  0  0  0  0  0  0
    3.7038    5.0713   -4.5228 O   0  0  0  0  0  0  0  0  0  0  0  0
    2.7672    5.2504   -5.6084 C   0  0  1  0  0  0  0  0  0  0  0  0
    4.8695    4.2339   -6.1318 H   0  0  0  0  0  0  0  0  0  0  0  0
    2.6071    4.8144   -7.6879 H   0  0  0  0  0  0  0  0  0  0  0  0
    3.0384    2.2943   -7.3604 H   0  0  0  0  0  0  0  0  0  0  0  0
    1.4718    2.9203   -6.8451 H   0  0  0  0  0  0  0  0  0  0  0  0
    2.4563    1.3455   -5.2265 H   0  0  0  0  0  0  0  0  0  0  0  0
    3.8689    2.3759   -5.0128 H   0  0  0  0  0  0  0  0  0  0  0  0
    0.3807    2.2600   -4.0315 H   0  0  0  0  0  0  0  0  0  0  0  0
   -0.5438    0.6213   -0.5830 H   0  0  0  0  0  0  0  0  0  0  0  0
    0.4468    0.5985    1.7722 H   0  0  0  0  0  0  0  0  0  0  0  0
   -2.4989   -0.1092    1.3636 H   0  0  0  0  0  0  0  0  0  0  0  0
   -1.7718    1.4898    1.2810 H   0  0  0  0  0  0  0  0  0  0  0  0
   -2.8938    1.0693    3.4536 H   0  0  0  0  0  0  0  0  0  0  0  0
   -1.1734    1.3914    3.6583 H   0  0  0  0  0  0  0  0  0  0  0  0
   -1.8417   -0.5159    5.0601 H   0  0  0  0  0  0  0  0  0  0  0  0
   -2.5283   -1.3544    3.6724 H   0  0  0  0  0  0  0  0  0  0  0  0
   -0.2883   -2.2505    4.1980 H   0  0  0  0  0  0  0  0  0  0  0  0
    0.4067   -0.6402    4.1271 H   0  0  0  0  0  0  0  0  0  0  0  0
    0.9865   -1.7102    2.1102 H   0  0  0  0  0  0  0  0  0  0  0  0
   -1.0526   -3.4502    2.1963 H   0  0  0  0  0  0  0  0  0  0  0  0
   -1.7107   -3.4896   -0.1060 H   0  0  0  0  0  0  0  0  0  0  0  0
   -0.2455   -1.9721   -1.4815 H   0  0  0  0  0  0  0  0  0  0  0  0
   -1.9583   -0.3609   -2.2172 H   0  0  0  0  0  0  0  0  0  0  0  0
   -2.6470   -1.9572   -1.9187 H   0  0  0  0  0  0  0  0  0  0  0  0
   -2.9048   -0.6567   -0.7516 H   0  0  0  0  0  0  0  0  0  0  0  0
    4.2122    3.1940   -0.0951 H   0  0  0  0  0  0  0  0  0  0  0  0
    3.7828    4.0812   -2.2070 H   0  0  0  0  0  0  0  0  0  0  0  0
    1.7435    5.3007   -3.6216 H   0  0  0  0  0  0  0  0  0  0  0  0
    2.4977    6.2629   -5.8705 H   0  0  0  0  0  0  0  0  0  0  0  0
 31  1  1  0
  1  2  1  0
  2 32  1  6
  2  3  1  0
  3 33  1  0
  3 34  1  0
  3  4  1  0
  4 35  1  0
  4 36  1  0
  4  5  1  0
  5  6  1  6
  6 37  1  0
  5  7  1  0
  7  8  1  0
  8  9  1  0
  8 10  2  0
 10 11  1  0
 11 12  2  0
 11 13  1  0
 13 38  1  6
 13 14  1  0
 14 39  1  1
 14 15  1  0
 15 40  1  0
 15 41  1  0
 15 16  1  0
 16 42  1  0
 16 43  1  0
 16 17  1  0
 17 44  1  0
 17 45  1  0
 17 18  1  0
 18 46  1  0
 18 47  1  0
 14 19  1  0
 18 19  1  0
 19 48  1  1
 19 20  1  0
 20 49  1  0
 20 21  2  0
 21 50  1  0
 13 22  1  0
 21 22  1  0
 22 51  1  6
 22 23  1  0
 23 52  1  0
 23 53  1  0
 23 54  1  0
 10 24  1  0
 24 25  2  0
 24 26  1  0
 26 55  1  0
  7 27  2  0
 26 27  1  0
 27 56  1  0
  5 28  1  0
 28 57  1  1
 28 29  1  0
 28 30  1  0
  2 30  1  0
 29 30  1  0
 30 58  1  6
M  CHG  1   9  -1
M  END
>  <conformer_energy>  (1) 
58.65

>  <ligand_smiles>  (1) 
C[C@@H]1C=C[C@@H]2CCCC[C@@H]2[C@H]1C(=O)c1c([O-])c([C@]2(O)CC[C@H](O)[C@@H]3O[C@@H]32)c[nH]c1=O

>  <ligand_conf_name>  (1) 
MOL_0_isomer_0_conf_0

>  <ligand_molecule_name>  (1) 
MOL_0_isomer_0

$$$$
