MOL_0_isomer_0_conf_0
     RDKit          3D

 61 65  0  0  0  0  0  0  0  0999 V2000
    4.0365   -9.4292   -2.6313 O   0  0  0  0  0  0  0  0  0  0  0  0
    3.5653   -8.1858   -2.3313 C   0  0  0  0  0  0  0  0  0  0  0  0
    2.8995   -8.0175   -1.1293 C   0  0  0  0  0  0  0  0  0  0  0  0
    2.4048   -6.7588   -0.7820 C   0  0  0  0  0  0  0  0  0  0  0  0
    2.5804   -5.6470   -1.6258 C   0  0  0  0  0  0  0  0  0  0  0  0
    3.2350   -5.8434   -2.8628 C   0  0  0  0  0  0  0  0  0  0  0  0
    3.7374   -7.1144   -3.1985 C   0  0  0  0  0  0  0  0  0  0  0  0
    3.4713   -4.7143   -3.8374 C   0  0  0  0  0  0  0  0  0  0  0  0
    2.6490   -3.4622   -3.5489 C   0  0  0  0  0  0  0  0  0  0  0  0
    2.7022   -3.1385   -2.0538 C   0  0  1  0  0  0  0  0  0  0  0  0
    2.0198   -1.8097   -1.7188 C   0  0  2  0  0  0  0  0  0  0  0  0
    2.5029   -0.5409   -2.4210 C   0  0  0  0  0  0  0  0  0  0  0  0
    2.1151    0.6118   -1.4747 C   0  0  0  0  0  0  0  0  0  0  0  0
    1.4499   -0.0370   -0.2288 C   0  0  1  0  0  0  0  0  0  0  0  0
    1.8118    0.7078    0.9294 O   0  0  0  0  0  0  0  0  0  0  0  0
   -0.0653   -0.0552   -0.2309 C   0  0  0  0  0  0  0  0  0  0  0  0
   -0.9014    0.2339   -1.2410 C   0  0  0  0  0  0  0  0  0  0  0  0
   -2.3560    0.1869   -1.0601 C   0  0  0  0  0  0  0  0  0  0  0  0
   -2.9818   -1.0662   -0.9752 C   0  0  0  0  0  0  0  0  0  0  0  0
   -4.3622   -1.1601   -0.8007 C   0  0  0  0  0  0  0  0  0  0  0  0
   -5.1305   -0.0039   -0.7081 C   0  0  0  0  0  0  0  0  0  0  0  0
   -4.5184    1.2474   -0.7895 C   0  0  0  0  0  0  0  0  0  0  0  0
   -3.1263    1.3613   -0.9667 C   0  0  0  0  0  0  0  0  0  0  0  0
   -2.4879    2.7268   -1.0422 C   0  0  0  0  0  0  0  0  0  0  0  0
   -1.7927    2.9257   -2.1986 F   0  0  0  0  0  0  0  0  0  0  0  0
   -1.6078    2.9644   -0.0285 F   0  0  0  0  0  0  0  0  0  0  0  0
   -3.3902    3.7497   -0.9847 F   0  0  0  0  0  0  0  0  0  0  0  0
    2.1075   -1.4587   -0.2160 C   0  0  2  0  0  0  0  0  0  0  0  0
    3.5679   -1.3573    0.3168 C   0  0  0  0  0  0  0  0  0  0  0  0
    1.3871   -2.5690    0.5715 C   0  0  0  0  0  0  0  0  0  0  0  0
    1.9491   -3.9689    0.2540 C   0  0  0  0  0  0  0  0  0  0  0  0
    1.9972   -4.2822   -1.2646 C   0  0  2  0  0  0  0  0  0  0  0  0
    4.4819   -9.3897   -3.4931 H   0  0  0  0  0  0  0  0  0  0  0  0
    2.7603   -8.8627   -0.4615 H   0  0  0  0  0  0  0  0  0  0  0  0
    1.8735   -6.6721    0.1613 H   0  0  0  0  0  0  0  0  0  0  0  0
    4.2587   -7.2498   -4.1418 H   0  0  0  0  0  0  0  0  0  0  0  0
    3.2488   -5.0517   -4.8570 H   0  0  0  0  0  0  0  0  0  0  0  0
    4.5378   -4.4576   -3.8012 H   0  0  0  0  0  0  0  0  0  0  0  0
    3.0432   -2.6351   -4.1496 H   0  0  0  0  0  0  0  0  0  0  0  0
    1.6088   -3.6173   -3.8635 H   0  0  0  0  0  0  0  0  0  0  0  0
    3.7602   -3.0899   -1.7662 H   0  0  0  0  0  0  0  0  0  0  0  0
    0.9604   -1.9293   -1.9949 H   0  0  0  0  0  0  0  0  0  0  0  0
    2.0284   -0.4224   -3.4008 H   0  0  0  0  0  0  0  0  0  0  0  0
    3.5874   -0.5534   -2.5774 H   0  0  0  0  0  0  0  0  0  0  0  0
    3.0169    1.1688   -1.1890 H   0  0  0  0  0  0  0  0  0  0  0  0
    1.4772    1.3455   -1.9775 H   0  0  0  0  0  0  0  0  0  0  0  0
    1.4171    1.5926    0.8349 H   0  0  0  0  0  0  0  0  0  0  0  0
   -0.4987   -0.3334    0.7318 H   0  0  0  0  0  0  0  0  0  0  0  0
   -0.5568    0.5184   -2.2306 H   0  0  0  0  0  0  0  0  0  0  0  0
   -2.3940   -1.9797   -1.0456 H   0  0  0  0  0  0  0  0  0  0  0  0
   -4.8364   -2.1363   -0.7362 H   0  0  0  0  0  0  0  0  0  0  0  0
   -6.2069   -0.0758   -0.5706 H   0  0  0  0  0  0  0  0  0  0  0  0
   -5.1368    2.1412   -0.7117 H   0  0  0  0  0  0  0  0  0  0  0  0
    4.1556   -0.5931   -0.2003 H   0  0  0  0  0  0  0  0  0  0  0  0
    3.5705   -1.1021    1.3830 H   0  0  0  0  0  0  0  0  0  0  0  0
    4.1238   -2.2932    0.2193 H   0  0  0  0  0  0  0  0  0  0  0  0
    1.4532   -2.3808    1.6498 H   0  0  0  0  0  0  0  0  0  0  0  0
    0.3187   -2.5885    0.3253 H   0  0  0  0  0  0  0  0  0  0  0  0
    1.3068   -4.6929    0.7689 H   0  0  0  0  0  0  0  0  0  0  0  0
    2.9470   -4.0862    0.6925 H   0  0  0  0  0  0  0  0  0  0  0  0
    0.9504   -4.3233   -1.6041 H   0  0  0  0  0  0  0  0  0  0  0  0
 33  1  1  0
  1  2  1  0
  2  3  2  0
  3 34  1  0
  3  4  1  0
  4 35  1  0
  4  5  2  0
  5  6  1  0
  2  7  1  0
  6  7  2  0
  7 36  1  0
  6  8  1  0
  8 37  1  0
  8 38  1  0
  8  9  1  0
  9 39  1  0
  9 40  1  0
  9 10  1  0
 10 41  1  1
 10 11  1  0
 11 42  1  6
 11 12  1  0
 12 43  1  0
 12 44  1  0
 12 13  1  0
 13 45  1  0
 13 46  1  0
 13 14  1  0
 14 15  1  1
 15 47  1  0
 14 16  1  0
 16 48  1  0
 16 17  2  0
 17 49  1  0
 17 18  1  0
 18 19  2  0
 19 50  1  0
 19 20  1  0
 20 51  1  0
 20 21  2  0
 21 52  1  0
 21 22  1  0
 22 53  1  0
 18 23  1  0
 22 23  2  0
 23 24  1  0
 24 25  1  0
 24 26  1  0
 24 27  1  0
 11 28  1  0
 14 28  1  0
 28 29  1  1
 29 54  1  0
 29 55  1  0
 29 56  1  0
 28 30  1  0
 30 57  1  0
 30 58  1  0
 30 31  1  0
 31 59  1  0
 31 60  1  0
  5 32  1  0
 10 32  1  0
 31 32  1  0
 32 61  1  6
M  END
>  <conformer_energy>  (1) 
98.45

>  <ligand_smiles>  (1) 
C[C@]12CC[C@@H]3c4ccc(O)cc4CC[C@H]3[C@@H]1CC[C@@]2(O)/C=C/c1ccccc1C(F)(F)F

>  <ligand_conf_name>  (1) 
MOL_0_isomer_0_conf_0

>  <ligand_molecule_name>  (1) 
MOL_0_isomer_0

$$$$
