MOL_0_isomer_0_conf_0
     RDKit          3D

 41 43  0  0  0  0  0  0  0  0999 V2000
    3.3188    0.0454   -0.8091 C   0  0  0  0  0  0  0  0  0  0  0  0
    1.9590    0.0622   -1.0594 N   0  0  0  0  0  0  0  0  0  0  0  0
    1.3081   -0.0241    0.0770 C   0  0  0  0  0  0  0  0  0  0  0  0
   -0.0625   -0.0225    0.0955 N   0  0  0  0  0  0  0  0  0  0  0  0
   -0.8831   -0.0957    1.1968 C   0  0  0  0  0  0  0  0  0  0  0  0
   -0.5311   -0.1702    2.3702 O   0  0  0  0  0  0  0  0  0  0  0  0
   -2.3744   -0.0755    0.8550 C   0  0  0  0  0  0  0  0  0  0  0  0
   -2.7707   -1.2835    0.0109 C   0  0  0  0  0  0  0  0  0  0  0  0
   -2.7756    1.2346    0.1829 C   0  0  0  0  0  0  0  0  0  0  0  0
    2.2653   -0.1308    1.4777 S   0  0  0  0  0  0  0  0  0  0  0  0
    3.6882   -0.0805    0.5177 C   0  0  0  0  0  0  0  0  0  0  0  0
    5.0032   -0.1396    1.0940 C   0  0  0  0  0  0  0  0  0  0  0  0
    5.4493    0.4252    2.2730 C   0  0  0  0  0  0  0  0  0  0  0  0
    6.8418    0.1909    2.3135 C   0  0  0  0  0  0  0  0  0  0  0  0
    7.7974    0.6416    3.3729 C   0  0  0  0  0  0  0  0  0  0  0  0
    7.7393    1.9932    3.5394 F   0  0  0  0  0  0  0  0  0  0  0  0
    7.4750    0.1032    4.5825 F   0  0  0  0  0  0  0  0  0  0  0  0
    7.2490   -0.4974    1.2364 N   0  0  0  0  0  0  0  0  0  0  0  0
    6.1153   -0.7546    0.5330 N   0  0  0  0  0  0  0  0  0  0  0  0
    6.1862   -1.6070   -0.5905 C   0  0  0  0  0  0  0  0  0  0  0  0
    5.4431   -2.7976   -0.6347 C   0  0  0  0  0  0  0  0  0  0  0  0
    4.4852   -3.3783    0.6837 Cl  0  0  0  0  0  0  0  0  0  0  0  0
    5.5280   -3.6313   -1.7560 C   0  0  0  0  0  0  0  0  0  0  0  0
    6.3565   -3.2958   -2.8248 C   0  0  0  0  0  0  0  0  0  0  0  0
    7.1082   -2.1238   -2.7758 C   0  0  0  0  0  0  0  0  0  0  0  0
    7.0306   -1.2778   -1.6633 C   0  0  0  0  0  0  0  0  0  0  0  0
    7.9190    0.2050   -1.7575 Cl  0  0  0  0  0  0  0  0  0  0  0  0
    3.9981    0.1355   -1.6482 H   0  0  0  0  0  0  0  0  0  0  0  0
   -0.4624    0.0448   -0.8289 H   0  0  0  0  0  0  0  0  0  0  0  0
   -2.9139   -0.1419    1.8092 H   0  0  0  0  0  0  0  0  0  0  0  0
   -3.8588   -1.3343   -0.1020 H   0  0  0  0  0  0  0  0  0  0  0  0
   -2.4347   -2.2135    0.4822 H   0  0  0  0  0  0  0  0  0  0  0  0
   -2.3327   -1.2441   -0.9920 H   0  0  0  0  0  0  0  0  0  0  0  0
   -3.8638    1.2958    0.0772 H   0  0  0  0  0  0  0  0  0  0  0  0
   -2.3371    1.3338   -0.8156 H   0  0  0  0  0  0  0  0  0  0  0  0
   -2.4435    2.0931    0.7766 H   0  0  0  0  0  0  0  0  0  0  0  0
    4.8634    0.9802    2.9947 H   0  0  0  0  0  0  0  0  0  0  0  0
    8.8310    0.3693    3.1407 H   0  0  0  0  0  0  0  0  0  0  0  0
    4.9621   -4.5605   -1.7937 H   0  0  0  0  0  0  0  0  0  0  0  0
    6.4219   -3.9504   -3.6911 H   0  0  0  0  0  0  0  0  0  0  0  0
    7.7490   -1.8670   -3.6174 H   0  0  0  0  0  0  0  0  0  0  0  0
 28  1  1  0
  1  2  1  0
  2  3  2  0
  3  4  1  0
  4 29  1  0
  4  5  1  0
  5  6  2  0
  5  7  1  0
  7 30  1  0
  7  8  1  0
  8 31  1  0
  8 32  1  0
  8 33  1  0
  7  9  1  0
  9 34  1  0
  9 35  1  0
  9 36  1  0
  3 10  1  0
  1 11  2  0
 10 11  1  0
 11 12  1  0
 12 13  2  0
 13 37  1  0
 13 14  1  0
 14 15  1  0
 15 38  1  0
 15 16  1  0
 15 17  1  0
 14 18  2  0
 12 19  1  0
 18 19  1  0
 19 20  1  0
 20 21  2  0
 21 22  1  0
 21 23  1  0
 23 39  1  0
 23 24  2  0
 24 40  1  0
 24 25  1  0
 25 41  1  0
 20 26  1  0
 25 26  2  0
 26 27  1  0
M  END
>  <conformer_energy>  (1) 
56.19

>  <ligand_smiles>  (1) 
CC(C)C(=O)Nc1ncc(-c2cc(C(F)F)nn2-c2c(Cl)cccc2Cl)s1

>  <ligand_conf_name>  (1) 
MOL_0_isomer_0_conf_0

>  <ligand_molecule_name>  (1) 
MOL_0_isomer_0

$$$$
