MOL_0_isomer_0_conf_0
     RDKit          3D

 24 23  0  0  0  0  0  0  0  0999 V2000
    4.1154   -0.6573    0.8805 O   0  0  0  0  0  0  0  0  0  0  0  0
    3.7989    0.5369    0.1862 C   0  0  0  0  0  0  0  0  0  0  0  0
    2.3498    0.9541    0.5136 C   0  0  2  0  0  0  0  0  0  0  0  0
    1.3288   -0.0427   -0.0615 C   0  0  0  0  0  0  0  0  0  0  0  0
   -0.1577    0.2828    0.1955 C   0  0  0  0  0  0  0  0  0  0  0  0
   -0.4861    0.3801    1.6856 C   0  0  0  0  0  0  0  0  0  0  0  0
   -1.0390   -0.7862   -0.4580 C   0  0  0  0  0  0  0  0  0  0  0  0
    2.0875    2.3186   -0.0329 N   0  0  0  0  0  4  0  0  0  0  0  0
    5.0261   -0.9224    0.6486 H   0  0  0  0  0  0  0  0  0  0  0  0
    4.5029    1.3123    0.5063 H   0  0  0  0  0  0  0  0  0  0  0  0
    3.9284    0.3691   -0.8883 H   0  0  0  0  0  0  0  0  0  0  0  0
    2.2381    1.0296    1.6004 H   0  0  0  0  0  0  0  0  0  0  0  0
    1.5429   -1.0389    0.3481 H   0  0  0  0  0  0  0  0  0  0  0  0
    1.4843   -0.1216   -1.1462 H   0  0  0  0  0  0  0  0  0  0  0  0
   -0.4066    1.2407   -0.2764 H   0  0  0  0  0  0  0  0  0  0  0  0
    0.0283    1.2252    2.1528 H   0  0  0  0  0  0  0  0  0  0  0  0
   -1.5602    0.5324    1.8374 H   0  0  0  0  0  0  0  0  0  0  0  0
   -0.1964   -0.5330    2.2164 H   0  0  0  0  0  0  0  0  0  0  0  0
   -0.8448   -0.8461   -1.5342 H   0  0  0  0  0  0  0  0  0  0  0  0
   -0.8543   -1.7747   -0.0238 H   0  0  0  0  0  0  0  0  0  0  0  0
   -2.1003   -0.5507   -0.3244 H   0  0  0  0  0  0  0  0  0  0  0  0
    2.7851    2.9985    0.2979 H   0  0  0  0  0  0  0  0  0  0  0  0
    1.1711    2.6698    0.2752 H   0  0  0  0  0  0  0  0  0  0  0  0
    2.0929    2.3314   -1.0615 H   0  0  0  0  0  0  0  0  0  0  0  0
  9  1  1  0
  1  2  1  0
  2 10  1  0
  2 11  1  0
  2  3  1  0
  3 12  1  1
  3  4  1  0
  4 13  1  0
  4 14  1  0
  4  5  1  0
  5 15  1  0
  5  6  1  0
  6 16  1  0
  6 17  1  0
  6 18  1  0
  5  7  1  0
  7 19  1  0
  7 20  1  0
  7 21  1  0
  3  8  1  0
  8 22  1  0
  8 23  1  0
  8 24  1  0
M  CHG  1   8   1
M  END
>  <conformer_energy>  (1) 
34.00

>  <ligand_smiles>  (1) 
CC(C)C[C@H]([NH3+])CO

>  <ligand_conf_name>  (1) 
MOL_0_isomer_0_conf_0

>  <ligand_molecule_name>  (1) 
MOL_0_isomer_0

$$$$
