MOL_0_isomer_0_conf_0
     RDKit          3D

 13 12  0  0  0  0  0  0  0  0999 V2000
    1.3869   -0.0089   -0.0476 N   0  0  0  0  0  0  0  0  0  0  0  0
    2.1591   -0.0070   -1.1955 C   0  0  0  0  0  0  0  0  0  0  0  0
    3.3918   -0.0151   -1.0809 O   0  0  0  0  0  0  0  0  0  0  0  0
    1.6138    0.0046   -2.6805 C   0  0  0  0  0  0  0  0  0  0  0  0
    0.3475    0.0047   -2.8445 O   0  0  0  0  0  0  0  0  0  0  0  0
    2.4741    0.0130   -3.6279 O   0  0  0  0  0  1  0  0  0  0  0  0
   -0.0768   -0.0001    0.0641 C   0  0  0  0  0  0  0  0  0  0  0  0
   -0.5980   -0.0030    1.5322 C   0  0  0  0  0  0  0  0  0  0  0  0
   -1.8568    0.0057    1.6758 O   0  0  0  0  0  0  0  0  0  0  0  0
    0.2995   -0.0137    2.4331 O   0  0  0  0  0  1  0  0  0  0  0  0
    1.8677   -0.0167    0.8447 H   0  0  0  0  0  0  0  0  0  0  0  0
   -0.4464    0.8956   -0.4449 H   0  0  0  0  0  0  0  0  0  0  0  0
   -0.4575   -0.8872   -0.4520 H   0  0  0  0  0  0  0  0  0  0  0  0
 11  1  1  0
  1  2  1  0
  2  3  2  0
  2  4  1  0
  4  5  2  0
  4  6  1  0
  1  7  1  0
  7 12  1  0
  7 13  1  0
  7  8  1  0
  8  9  2  0
  8 10  1  0
M  CHG  2   6  -1  10  -1
M  END
>  <conformer_energy>  (1) 
208.06

>  <ligand_smiles>  (1) 
O=C([O-])CNC(=O)C(=O)[O-]

>  <ligand_conf_name>  (1) 
MOL_0_isomer_0_conf_0

>  <ligand_molecule_name>  (1) 
MOL_0_isomer_0

$$$$
