1S19 - prepared_ligand_conf_0
     RDKit          3D

 70 73  0  0  0  0  0  0  0  0999 V2000
   15.6517   -1.0478    1.7906 O   0  0  0  0  0  0  0  0  0  0  0  0
   14.6107   -0.9379    0.8167 C   0  0  2  0  0  0  0  0  0  0  0  0
   13.4913    0.0007    1.3101 C   0  0  0  0  0  0  0  0  0  0  0  0
   12.3484   -0.7150    2.0179 C   0  0  0  0  0  0  0  0  0  0  0  0
   11.1091   -0.1801    2.0076 C   0  0  0  0  0  0  0  0  0  0  0  0
    9.9001   -0.7777    2.5411 C   0  0  0  0  0  0  0  0  0  0  0  0
    8.6792   -0.2115    2.6097 C   0  0  0  0  0  0  0  0  0  0  0  0
    8.3198    1.1993    2.1726 C   0  0  0  0  0  0  0  0  0  0  0  0
    7.1025    1.2337    1.2395 C   0  0  0  0  0  0  0  0  0  0  0  0
    5.9034    0.4358    1.7768 C   0  0  0  0  0  0  0  0  0  0  0  0
    6.2901   -1.0075    2.1689 C   0  0  2  0  0  0  0  0  0  0  0  0
    6.6646   -1.8027    0.8988 C   0  0  0  0  0  0  0  0  0  0  0  0
    5.2469   -1.7547    3.0590 C   0  0  1  0  0  0  0  0  0  0  0  0
    3.9024   -2.2914    2.4875 C   0  0  1  0  0  0  0  0  0  0  0  0
    3.0605   -1.1584    1.9317 C   0  0  0  0  0  0  0  0  0  0  0  0
    2.5739   -1.0293    0.6848 C   0  0  0  0  0  0  0  0  0  0  0  0
    1.7529    0.1410    0.2209 C   0  0  1  0  0  0  0  0  0  0  0  0
    2.4352    0.7438   -0.8722 O   0  0  0  0  0  0  0  0  0  0  0  0
    0.3676   -0.2305   -0.2295 C   0  0  0  0  0  0  0  0  0  0  0  0
   -0.7834   -0.2217    0.7473 C   0  0  0  0  0  0  0  0  0  0  0  0
   -0.7078    0.8233   -0.3313 C   0  0  0  0  0  0  0  0  0  0  0  0
    3.9840   -3.5197    1.5721 C   0  0  0  0  0  0  0  0  0  0  0  0
    6.0931   -2.8172    3.8089 C   0  0  0  0  0  0  0  0  0  0  0  0
    7.5531   -2.3414    3.7457 C   0  0  0  0  0  0  0  0  0  0  0  0
    7.4680   -0.9214    3.1845 C   0  0  1  0  0  0  0  0  0  0  0  0
   12.7127   -2.0006    2.6047 C   0  0  0  0  0  0  0  0  0  0  0  0
   12.5633   -2.2527    3.9164 C   0  0  0  0  0  0  0  0  0  0  0  0
   13.3910   -2.9871    1.6732 C   0  0  1  0  0  0  0  0  0  0  0  0
   12.4271   -3.9249    1.1980 O   0  0  0  0  0  0  0  0  0  0  0  0
   14.0699   -2.3221    0.4689 C   0  0  0  0  0  0  0  0  0  0  0  0
   15.2439   -1.1297    2.6713 H   0  0  0  0  0  0  0  0  0  0  0  0
   15.0775   -0.4974   -0.0711 H   0  0  0  0  0  0  0  0  0  0  0  0
   13.9100    0.7564    1.9854 H   0  0  0  0  0  0  0  0  0  0  0  0
   13.0855    0.5261    0.4357 H   0  0  0  0  0  0  0  0  0  0  0  0
   10.9929    0.7876    1.5264 H   0  0  0  0  0  0  0  0  0  0  0  0
   10.0147   -1.7929    2.9129 H   0  0  0  0  0  0  0  0  0  0  0  0
    9.1449    1.7158    1.6762 H   0  0  0  0  0  0  0  0  0  0  0  0
    8.0933    1.7871    3.0720 H   0  0  0  0  0  0  0  0  0  0  0  0
    6.7976    2.2757    1.0851 H   0  0  0  0  0  0  0  0  0  0  0  0
    7.3895    0.8505    0.2528 H   0  0  0  0  0  0  0  0  0  0  0  0
    5.1193    0.4383    1.0132 H   0  0  0  0  0  0  0  0  0  0  0  0
    5.4957    0.9637    2.6485 H   0  0  0  0  0  0  0  0  0  0  0  0
    5.8810   -1.7109    0.1397 H   0  0  0  0  0  0  0  0  0  0  0  0
    6.8139   -2.8676    1.1014 H   0  0  0  0  0  0  0  0  0  0  0  0
    7.5884   -1.4415    0.4365 H   0  0  0  0  0  0  0  0  0  0  0  0
    4.9469   -1.0312    3.8367 H   0  0  0  0  0  0  0  0  0  0  0  0
    3.3398   -2.6464    3.3648 H   0  0  0  0  0  0  0  0  0  0  0  0
    2.8377   -0.3682    2.6495 H   0  0  0  0  0  0  0  0  0  0  0  0
    2.7715   -1.7941   -0.0600 H   0  0  0  0  0  0  0  0  0  0  0  0
    1.6983    0.9013    1.0089 H   0  0  0  0  0  0  0  0  0  0  0  0
    2.4518    0.0933   -1.5926 H   0  0  0  0  0  0  0  0  0  0  0  0
    0.3723   -1.0068   -0.9870 H   0  0  0  0  0  0  0  0  0  0  0  0
   -0.5958    0.0892    1.7695 H   0  0  0  0  0  0  0  0  0  0  0  0
   -1.5344   -0.9982    0.6525 H   0  0  0  0  0  0  0  0  0  0  0  0
   -1.4048    0.7560   -1.1581 H   0  0  0  0  0  0  0  0  0  0  0  0
   -0.4615    1.8396   -0.0435 H   0  0  0  0  0  0  0  0  0  0  0  0
    2.9759   -3.8791    1.3291 H   0  0  0  0  0  0  0  0  0  0  0  0
    4.4875   -3.3183    0.6255 H   0  0  0  0  0  0  0  0  0  0  0  0
    4.4924   -4.3571    2.0559 H   0  0  0  0  0  0  0  0  0  0  0  0
    6.0279   -3.8152    3.3704 H   0  0  0  0  0  0  0  0  0  0  0  0
    5.7552   -2.9002    4.8483 H   0  0  0  0  0  0  0  0  0  0  0  0
    8.0247   -2.3624    4.7338 H   0  0  0  0  0  0  0  0  0  0  0  0
    8.1253   -3.0094    3.0921 H   0  0  0  0  0  0  0  0  0  0  0  0
    7.1497   -0.2925    4.0336 H   0  0  0  0  0  0  0  0  0  0  0  0
   12.8703   -3.2028    4.3442 H   0  0  0  0  0  0  0  0  0  0  0  0
   12.1236   -1.5261    4.5937 H   0  0  0  0  0  0  0  0  0  0  0  0
   14.1470   -3.5548    2.2293 H   0  0  0  0  0  0  0  0  0  0  0  0
   11.6026   -3.4314    1.0455 H   0  0  0  0  0  0  0  0  0  0  0  0
   14.8853   -2.9728    0.1286 H   0  0  0  0  0  0  0  0  0  0  0  0
   13.3684   -2.2472   -0.3723 H   0  0  0  0  0  0  0  0  0  0  0  0
 31  1  1  0
  1  2  1  0
  2 32  1  6
  2  3  1  0
  3 33  1  0
  3 34  1  0
  3  4  1  0
  4  5  2  0
  5 35  1  0
  5  6  1  0
  6 36  1  0
  6  7  2  0
  7  8  1  0
  8 37  1  0
  8 38  1  0
  8  9  1  0
  9 39  1  0
  9 40  1  0
  9 10  1  0
 10 41  1  0
 10 42  1  0
 10 11  1  0
 11 12  1  6
 12 43  1  0
 12 44  1  0
 12 45  1  0
 11 13  1  0
 13 46  1  1
 13 14  1  0
 14 47  1  1
 14 15  1  0
 15 48  1  0
 15 16  2  0
 16 49  1  0
 16 17  1  0
 17 50  1  1
 17 18  1  0
 18 51  1  0
 17 19  1  0
 19 52  1  0
 19 20  1  0
 20 53  1  0
 20 54  1  0
 19 21  1  0
 20 21  1  0
 21 55  1  0
 21 56  1  0
 14 22  1  0
 22 57  1  0
 22 58  1  0
 22 59  1  0
 13 23  1  0
 23 60  1  0
 23 61  1  0
 23 24  1  0
 24 62  1  0
 24 63  1  0
  7 25  1  0
 11 25  1  0
 24 25  1  0
 25 64  1  1
  4 26  1  0
 26 27  2  0
 27 65  1  0
 27 66  1  0
 26 28  1  0
 28 67  1  1
 28 29  1  0
 29 68  1  0
  2 30  1  0
 28 30  1  0
 30 69  1  0
 30 70  1  0
M  END
>  <conformer_energy>  (1) 
95.87

>  <ligand_smiles>  (1) 
C=C1/C(=C\C=C2/CCC[C@]3(C)[C@@H]([C@H](C)/C=C/[C@@H](O)C4CC4)CC[C@@H]23)C[C@@H](O)C[C@@H]1O

>  <ligand_conf_name>  (1) 
1S19 - prepared_ligand_conf_0

>  <ligand_molecule_name>  (1) 
1S19 - prepared_ligand

$$$$
