MOL_0_isomer_0_conf_0
     RDKit          3D

 69 74  0  0  0  0  0  0  0  0999 V2000
    5.0678    3.4509    3.9844 C   0  0  0  0  0  0  0  0  0  0  0  0
    4.8298    4.0791    5.1372 N   0  0  0  0  0  0  0  0  0  0  0  0
    5.9210    3.8176    5.8732 N   0  0  0  0  0  0  0  0  0  0  0  0
    6.0275    4.3434    7.2348 C   0  0  2  0  0  0  0  0  0  0  0  0
    4.9887    3.6878    8.1589 C   0  0  0  0  0  0  0  0  0  0  0  0
    3.6153    4.1800    7.9770 C   0  0  0  0  0  0  0  0  0  0  0  0
    2.5225    4.5634    7.8977 N   0  0  0  0  0  0  0  0  0  0  0  0
    6.0383    5.8874    7.2581 C   0  0  0  0  0  0  0  0  0  0  0  0
    6.2472    6.4852    8.6505 C   0  0  0  0  0  0  0  0  0  0  0  0
    6.6820    7.9234    8.3869 C   0  0  0  0  0  0  0  0  0  0  0  0
    7.2815    7.9362    6.9820 C   0  0  0  0  0  0  0  0  0  0  0  0
    7.2071    6.4994    6.4790 C   0  0  0  0  0  0  0  0  0  0  0  0
    6.8339    3.0289    5.2254 C   0  0  0  0  0  0  0  0  0  0  0  0
    6.3161    2.7892    3.9691 C   0  0  0  0  0  0  0  0  0  0  0  0
    6.8853    1.9794    2.9189 C   0  0  0  0  0  0  0  0  0  0  0  0
    6.0051    1.4239    2.0521 N   0  0  0  0  0  0  0  0  0  0  0  0
    6.4474    0.6584    1.0412 C   0  0  0  0  0  0  0  0  0  0  0  0
    5.5476    0.1002    0.1323 N   0  0  0  0  0  0  0  0  0  0  0  0
    4.1514    0.0691    0.0640 C   0  0  0  0  0  0  0  0  0  0  0  0
    3.3146    0.4594    1.1118 C   0  0  0  0  0  0  0  0  0  0  0  0
    1.9213    0.4563    0.9762 C   0  0  0  0  0  0  0  0  0  0  0  0
    1.3166    0.0652   -0.2231 C   0  0  0  0  0  0  0  0  0  0  0  0
   -0.1918    0.1042   -0.3433 C   0  0  0  0  0  0  0  0  0  0  0  0
   -0.6454    1.2097   -1.3103 C   0  0  0  0  0  0  0  0  0  0  0  0
   -2.1609    1.2632   -1.4060 C   0  0  0  0  0  0  0  0  0  0  0  0
   -2.6804   -0.0837   -1.7920 N   0  0  0  0  0  4  0  0  0  0  0  0
   -2.3027   -1.1754   -0.8448 C   0  0  0  0  0  0  0  0  0  0  0  0
   -0.7875   -1.2545   -0.7464 C   0  0  0  0  0  0  0  0  0  0  0  0
    2.1458   -0.3249   -1.2811 C   0  0  0  0  0  0  0  0  0  0  0  0
    3.5398   -0.3221   -1.1349 C   0  0  0  0  0  0  0  0  0  0  0  0
    7.7390    0.3915    0.7906 N   0  0  0  0  0  0  0  0  0  0  0  0
    8.5814    0.9680    1.6589 C   0  0  0  0  0  0  0  0  0  0  0  0
    8.2515    1.7723    2.7387 C   0  0  0  0  0  0  0  0  0  0  0  0
    9.4824    2.1699    3.3345 C   0  0  0  0  0  0  0  0  0  0  0  0
   10.5070    1.5836    2.6207 C   0  0  0  0  0  0  0  0  0  0  0  0
    9.9439    0.8533    1.6065 N   0  0  0  0  0  0  0  0  0  0  0  0
    4.3264    3.4949    3.1963 H   0  0  0  0  0  0  0  0  0  0  0  0
    7.0101    3.9995    7.5890 H   0  0  0  0  0  0  0  0  0  0  0  0
    4.9998    2.5997    8.0166 H   0  0  0  0  0  0  0  0  0  0  0  0
    5.2811    3.8592    9.2021 H   0  0  0  0  0  0  0  0  0  0  0  0
    5.1021    6.2816    6.8392 H   0  0  0  0  0  0  0  0  0  0  0  0
    5.3430    6.4467    9.2659 H   0  0  0  0  0  0  0  0  0  0  0  0
    7.0422    5.9517    9.1864 H   0  0  0  0  0  0  0  0  0  0  0  0
    7.4005    8.2646    9.1390 H   0  0  0  0  0  0  0  0  0  0  0  0
    5.8189    8.5979    8.4288 H   0  0  0  0  0  0  0  0  0  0  0  0
    6.6938    8.5972    6.3341 H   0  0  0  0  0  0  0  0  0  0  0  0
    8.3117    8.3072    6.9805 H   0  0  0  0  0  0  0  0  0  0  0  0
    8.1448    5.9785    6.7095 H   0  0  0  0  0  0  0  0  0  0  0  0
    7.0574    6.4593    5.3956 H   0  0  0  0  0  0  0  0  0  0  0  0
    7.7436    2.7070    5.7118 H   0  0  0  0  0  0  0  0  0  0  0  0
    6.0629   -0.3742   -0.5941 H   0  0  0  0  0  0  0  0  0  0  0  0
    3.7272    0.7658    2.0691 H   0  0  0  0  0  0  0  0  0  0  0  0
    1.3257    0.7726    1.8308 H   0  0  0  0  0  0  0  0  0  0  0  0
   -0.6041    0.3492    0.6467 H   0  0  0  0  0  0  0  0  0  0  0  0
   -0.2255    1.0419   -2.3109 H   0  0  0  0  0  0  0  0  0  0  0  0
   -0.2692    2.1839   -0.9736 H   0  0  0  0  0  0  0  0  0  0  0  0
   -2.4901    1.9653   -2.1777 H   0  0  0  0  0  0  0  0  0  0  0  0
   -2.6265    1.5312   -0.4517 H   0  0  0  0  0  0  0  0  0  0  0  0
   -3.7068   -0.0387   -1.8590 H   0  0  0  0  0  0  0  0  0  0  0  0
   -2.3540   -0.3198   -2.7398 H   0  0  0  0  0  0  0  0  0  0  0  0
   -2.7277   -2.1024   -1.2409 H   0  0  0  0  0  0  0  0  0  0  0  0
   -2.7692   -0.9468    0.1190 H   0  0  0  0  0  0  0  0  0  0  0  0
   -0.3841   -1.5858   -1.7114 H   0  0  0  0  0  0  0  0  0  0  0  0
   -0.5098   -2.0203   -0.0122 H   0  0  0  0  0  0  0  0  0  0  0  0
    1.7333   -0.6267   -2.2399 H   0  0  0  0  0  0  0  0  0  0  0  0
    4.1531   -0.6182   -1.9837 H   0  0  0  0  0  0  0  0  0  0  0  0
    9.6165    2.8222    4.1868 H   0  0  0  0  0  0  0  0  0  0  0  0
   11.5817    1.6299    2.7413 H   0  0  0  0  0  0  0  0  0  0  0  0
   10.4393    0.3176    0.9079 H   0  0  0  0  0  0  0  0  0  0  0  0
 37  1  1  0
  1  2  2  0
  2  3  1  0
  3  4  1  0
  4 38  1  1
  4  5  1  0
  5 39  1  0
  5 40  1  0
  5  6  1  0
  6  7  3  0
  4  8  1  0
  8 41  1  0
  8  9  1  0
  9 42  1  0
  9 43  1  0
  9 10  1  0
 10 44  1  0
 10 45  1  0
 10 11  1  0
 11 46  1  0
 11 47  1  0
  8 12  1  0
 11 12  1  0
 12 48  1  0
 12 49  1  0
  3 13  1  0
 13 50  1  0
  1 14  1  0
 13 14  2  0
 14 15  1  0
 15 16  2  0
 16 17  1  0
 17 18  1  0
 18 51  1  0
 18 19  1  0
 19 20  2  0
 20 52  1  0
 20 21  1  0
 21 53  1  0
 21 22  2  0
 22 23  1  0
 23 54  1  0
 23 24  1  0
 24 55  1  0
 24 56  1  0
 24 25  1  0
 25 57  1  0
 25 58  1  0
 25 26  1  0
 26 59  1  0
 26 60  1  0
 26 27  1  0
 27 61  1  0
 27 62  1  0
 23 28  1  0
 27 28  1  0
 28 63  1  0
 28 64  1  0
 22 29  1  0
 29 65  1  0
 19 30  1  0
 29 30  2  0
 30 66  1  0
 17 31  2  0
 31 32  1  0
 15 33  1  0
 32 33  2  0
 33 34  1  0
 34 67  1  0
 34 35  2  0
 35 68  1  0
 32 36  1  0
 35 36  1  0
 36 69  1  0
M  CHG  1  26   1
M  END
>  <conformer_energy>  (1) 
-18.39

>  <ligand_smiles>  (1) 
N#CC[C@H](C1CCCC1)n1cc(-c2nc(Nc3ccc(C4CC[NH2+]CC4)cc3)nc3[nH]ccc23)cn1

>  <ligand_conf_name>  (1) 
MOL_0_isomer_0_conf_0

>  <ligand_molecule_name>  (1) 
MOL_0_isomer_0

$$$$
