MOL_0_isomer_0_conf_0
     RDKit          3D

 35 34  0  0  0  0  0  0  0  0999 V2000
   -0.3142   -1.8265   -1.3411 N   0  0  0  0  0  0  0  0  0  0  0  0
    0.7238   -1.1175   -0.7951 C   0  0  0  0  0  0  0  0  0  0  0  0
    1.8959   -1.5128   -0.8563 O   0  0  0  0  0  0  0  0  0  0  0  0
    0.3110    0.2037   -0.0861 C   0  0  1  0  0  0  0  0  0  0  0  0
    1.4072    0.6591    0.7682 N   0  0  0  0  0  0  0  0  0  0  0  0
    1.8469    0.0043    1.8739 C   0  0  0  0  0  0  0  0  0  0  0  0
    1.4013   -1.0700    2.2763 O   0  0  0  0  0  0  0  0  0  0  0  0
    3.0729    0.6283    2.4950 C   0  0  0  0  0  0  0  0  0  0  0  0
    4.1330   -0.4361    2.8036 C   0  0  0  0  0  0  0  0  0  0  0  0
    4.6295   -1.2146    1.5764 C   0  0  1  0  0  0  0  0  0  0  0  0
    5.9098   -2.0412    1.9353 C   0  0  0  0  0  0  0  0  0  0  0  0
    5.7712   -3.2665    1.6140 O   0  0  0  0  0  0  0  0  0  0  0  0
    6.8701   -1.4301    2.4643 O   0  0  0  0  0  1  0  0  0  0  0  0
    3.5542   -2.1332    1.0515 N   0  0  0  0  0  4  0  0  0  0  0  0
   -0.0086    1.2928   -1.1439 C   0  0  0  0  0  0  0  0  0  0  0  0
    0.0474    3.0114   -0.4072 S   0  0  0  0  0  1  0  0  0  0  0  0
   -0.1574   -3.1091   -2.0331 C   0  0  0  0  0  0  0  0  0  0  0  0
   -1.4925   -3.7870   -2.4321 C   0  0  0  0  0  0  0  0  0  0  0  0
   -1.3809   -4.9069   -3.0088 O   0  0  0  0  0  0  0  0  0  0  0  0
   -2.5368   -3.1350   -2.1268 O   0  0  0  0  0  1  0  0  0  0  0  0
   -1.2810   -1.5098   -1.2805 H   0  0  0  0  0  0  0  0  0  0  0  0
   -0.5553    0.0079    0.5577 H   0  0  0  0  0  0  0  0  0  0  0  0
    1.5702    1.6615    0.6478 H   0  0  0  0  0  0  0  0  0  0  0  0
    2.7637    1.1272    3.4200 H   0  0  0  0  0  0  0  0  0  0  0  0
    3.4989    1.3894    1.8316 H   0  0  0  0  0  0  0  0  0  0  0  0
    3.7477   -1.1400    3.5533 H   0  0  0  0  0  0  0  0  0  0  0  0
    4.9759    0.0776    3.2824 H   0  0  0  0  0  0  0  0  0  0  0  0
    4.8826   -0.5411    0.7503 H   0  0  0  0  0  0  0  0  0  0  0  0
    3.1366   -1.8512    0.1421 H   0  0  0  0  0  0  0  0  0  0  0  0
    4.0313   -3.0482    0.9315 H   0  0  0  0  0  0  0  0  0  0  0  0
    2.7596   -2.2676    1.6927 H   0  0  0  0  0  0  0  0  0  0  0  0
    0.7152    1.2114   -1.9660 H   0  0  0  0  0  0  0  0  0  0  0  0
   -0.9831    1.0681   -1.5947 H   0  0  0  0  0  0  0  0  0  0  0  0
    0.4391   -2.9257   -2.9332 H   0  0  0  0  0  0  0  0  0  0  0  0
    0.4086   -3.7786   -1.3763 H   0  0  0  0  0  0  0  0  0  0  0  0
 21  1  1  0
  1  2  1  0
  2  3  2  0
  2  4  1  0
  4 22  1  1
  4  5  1  0
  5 23  1  0
  5  6  1  0
  6  7  2  0
  6  8  1  0
  8 24  1  0
  8 25  1  0
  8  9  1  0
  9 26  1  0
  9 27  1  0
  9 10  1  0
 10 28  1  6
 10 11  1  0
 11 12  2  0
 11 13  1  0
 10 14  1  0
 14 29  1  0
 14 30  1  0
 14 31  1  0
  4 15  1  0
 15 32  1  0
 15 33  1  0
 15 16  1  0
  1 17  1  0
 17 34  1  0
 17 35  1  0
 17 18  1  0
 18 19  2  0
 18 20  1  0
M  CHG  4  13  -1  14   1  16  -1  20  -1
M  END
>  <conformer_energy>  (1) 
47.14

>  <ligand_smiles>  (1) 
[NH3+][C@@H](CCC(=O)N[C@@H](C[S-])C(=O)NCC(=O)[O-])C(=O)[O-]

>  <ligand_conf_name>  (1) 
MOL_0_isomer_0_conf_0

>  <ligand_molecule_name>  (1) 
MOL_0_isomer_0

$$$$
