MOL_0_isomer_0_conf_0
     RDKit          3D

 53 58  0  0  0  0  0  0  0  0999 V2000
    2.0159   -6.3031   -4.8108 C   0  0  0  0  0  0  0  0  0  0  0  0
    1.0530   -6.9541   -4.1961 N   0  0  0  0  0  0  0  0  0  0  0  0
    0.7304   -6.2835   -3.0289 C   0  0  0  0  0  0  0  0  0  0  0  0
    1.4514   -5.1337   -2.7812 C   0  0  0  0  0  0  0  0  0  0  0  0
    1.2697   -4.2151   -1.5449 C   0  0  0  0  0  0  0  0  0  0  0  0
    0.3748   -4.3500   -0.4708 C   0  0  0  0  0  0  0  0  0  0  0  0
    0.4889   -3.3549    0.4110 N   0  0  0  0  0  0  0  0  0  0  0  0
    1.5030   -2.6001   -0.0713 N   0  0  0  0  0  0  0  0  0  0  0  0
    1.9086   -1.3820    0.6499 C   0  0  1  0  0  0  0  0  0  0  0  0
    3.4207   -1.2747    0.7077 C   0  0  0  0  0  0  0  0  0  0  0  0
    4.1975   -0.6287   -0.2756 C   0  0  0  0  0  0  0  0  0  0  0  0
    5.5861   -0.5825   -0.1686 C   0  0  0  0  0  0  0  0  0  0  0  0
    6.2317   -1.1672    0.9218 C   0  0  0  0  0  0  0  0  0  0  0  0
    7.6958   -1.1315    1.0543 C   0  0  0  0  0  0  0  0  0  0  0  0
    8.4164   -2.1785    0.4370 C   0  0  0  0  0  0  0  0  0  0  0  0
    7.7393   -3.1194   -0.2443 F   0  0  0  0  0  0  0  0  0  0  0  0
    9.8041   -2.2660    0.5137 C   0  0  0  0  0  0  0  0  0  0  0  0
   10.6510   -3.5527   -0.2521 Cl  0  0  0  0  0  0  0  0  0  0  0  0
   10.5157   -1.3035    1.2165 C   0  0  0  0  0  0  0  0  0  0  0  0
    9.8372   -0.2504    1.8377 C   0  0  0  0  0  0  0  0  0  0  0  0
    8.4302   -0.1437    1.7650 C   0  0  0  0  0  0  0  0  0  0  0  0
    7.8033    0.9680    2.4066 N   0  0  0  0  0  0  0  0  0  0  0  0
    6.4783    1.2221    2.3459 N   0  0  0  0  0  0  0  0  0  0  0  0
    6.2736    2.3358    3.0318 N   0  0  0  0  0  0  0  0  0  0  0  0
    7.4443    2.8168    3.5431 N   0  0  0  0  0  0  0  0  0  0  0  0
    8.3722    1.9718    3.1584 C   0  0  0  0  0  0  0  0  0  0  0  0
    5.4445   -1.8142    1.8783 C   0  0  0  0  0  0  0  0  0  0  0  0
    4.0588   -1.8742    1.7904 N   0  0  0  0  0  4  0  0  0  0  0  0
    3.4153   -2.4713    2.7063 O   0  0  0  0  0  1  0  0  0  0  0  0
    1.2366   -0.1258    0.0450 C   0  0  0  0  0  0  0  0  0  0  0  0
   -0.2372   -0.0425    0.3426 C   0  0  0  0  0  0  0  0  0  0  0  0
   -0.7187    0.5332    1.6485 C   0  0  0  0  0  0  0  0  0  0  0  0
   -0.9267    1.2971    0.3697 C   0  0  0  0  0  0  0  0  0  0  0  0
    1.9720   -3.0643   -1.2752 C   0  0  0  0  0  0  0  0  0  0  0  0
    2.5762   -4.8752   -4.0437 S   0  0  0  0  0  0  0  0  0  0  0  0
    2.4354   -6.6434   -5.7485 H   0  0  0  0  0  0  0  0  0  0  0  0
   -0.0486   -6.6897   -2.3955 H   0  0  0  0  0  0  0  0  0  0  0  0
   -0.3635   -5.1197   -0.2893 H   0  0  0  0  0  0  0  0  0  0  0  0
    1.5186   -1.4962    1.6696 H   0  0  0  0  0  0  0  0  0  0  0  0
    3.7279   -0.1596   -1.1376 H   0  0  0  0  0  0  0  0  0  0  0  0
    6.1611   -0.0765   -0.9430 H   0  0  0  0  0  0  0  0  0  0  0  0
   11.6003   -1.3633    1.2841 H   0  0  0  0  0  0  0  0  0  0  0  0
   10.4519    0.4750    2.3660 H   0  0  0  0  0  0  0  0  0  0  0  0
    9.4205    2.0483    3.3961 H   0  0  0  0  0  0  0  0  0  0  0  0
    5.8246   -2.3114    2.7592 H   0  0  0  0  0  0  0  0  0  0  0  0
    1.3635   -0.1023   -1.0447 H   0  0  0  0  0  0  0  0  0  0  0  0
    1.7287    0.7740    0.4382 H   0  0  0  0  0  0  0  0  0  0  0  0
   -0.7947   -0.8744   -0.0770 H   0  0  0  0  0  0  0  0  0  0  0  0
    0.0102    0.9120    2.3561 H   0  0  0  0  0  0  0  0  0  0  0  0
   -1.5817    0.0690    2.1139 H   0  0  0  0  0  0  0  0  0  0  0  0
   -1.9352    1.3563   -0.0247 H   0  0  0  0  0  0  0  0  0  0  0  0
   -0.3392    2.1949    0.2161 H   0  0  0  0  0  0  0  0  0  0  0  0
    2.7534   -2.5588   -1.8221 H   0  0  0  0  0  0  0  0  0  0  0  0
 36  1  1  0
  1  2  2  0
  2  3  1  0
  3 37  1  0
  3  4  2  0
  4  5  1  0
  5  6  1  0
  6 38  1  0
  6  7  2  0
  7  8  1  0
  8  9  1  0
  9 39  1  1
  9 10  1  0
 10 11  2  0
 11 40  1  0
 11 12  1  0
 12 41  1  0
 12 13  2  0
 13 14  1  0
 14 15  2  0
 15 16  1  0
 15 17  1  0
 17 18  1  0
 17 19  2  0
 19 42  1  0
 19 20  1  0
 20 43  1  0
 14 21  1  0
 20 21  2  0
 21 22  1  0
 22 23  1  0
 23 24  2  0
 24 25  1  0
 22 26  1  0
 25 26  2  0
 26 44  1  0
 13 27  1  0
 27 45  1  0
 10 28  1  0
 27 28  2  0
 28 29  1  0
  9 30  1  0
 30 46  1  0
 30 47  1  0
 30 31  1  0
 31 48  1  0
 31 32  1  0
 32 49  1  0
 32 50  1  0
 31 33  1  0
 32 33  1  0
 33 51  1  0
 33 52  1  0
  5 34  2  0
  8 34  1  0
 34 53  1  0
  1 35  1  0
  4 35  1  0
M  CHG  2  28   1  29  -1
M  END
>  <conformer_energy>  (1) 
106.18

>  <ligand_smiles>  (1) 
[O-][n+]1cc(-c2c(-n3cnnn3)ccc(Cl)c2F)ccc1[C@@H](CC1CC1)n1cc(-c2cncs2)cn1

>  <ligand_conf_name>  (1) 
MOL_0_isomer_0_conf_0

>  <ligand_molecule_name>  (1) 
MOL_0_isomer_0

$$$$
