MOL_0_isomer_0_conf_0
     RDKit          3D

 30 30  0  0  0  0  0  0  0  0999 V2000
    4.3519   -2.1338   -0.0792 C   0  0  0  0  0  0  0  0  0  0  0  0
    3.3411   -1.7628    0.7248 C   0  0  0  0  0  0  0  0  0  0  0  0
    1.9052   -1.5278    0.3890 C   0  0  0  0  0  0  0  0  0  0  0  0
    1.6297   -0.0669   -0.0202 C   0  0  1  0  0  0  0  0  0  0  0  0
    2.2928    0.2349   -1.4152 C   0  0  0  0  0  0  0  0  0  0  0  0
    2.6803    1.4302   -1.5429 O   0  0  0  0  0  0  0  0  0  0  0  0
    2.2253   -0.6993   -2.2602 O   0  0  0  0  0  1  0  0  0  0  0  0
    0.0376    0.2783    0.0421 N   0  0  0  0  0  4  0  0  0  0  0  0
   -0.4977    0.1743    1.4440 C   0  0  0  0  0  0  0  0  0  0  0  0
   -0.1022    1.7289   -0.4443 C   0  0  0  0  0  0  0  0  0  0  0  0
   -0.7210   -0.6182   -0.9212 C   0  0  0  0  0  0  0  0  0  0  0  0
    3.8291   -1.6475    2.0094 N   0  0  0  0  0  0  0  0  0  0  0  0
    5.1958   -1.9478    2.0018 C   0  0  0  0  0  0  0  0  0  0  0  0
    6.2164   -1.9483    3.2912 S   0  0  0  0  0  0  0  0  0  0  0  0
    5.4954   -2.2485    0.6726 N   0  0  0  0  0  0  0  0  0  0  0  0
    4.3411   -2.3143   -1.1458 H   0  0  0  0  0  0  0  0  0  0  0  0
    1.6081   -2.2249   -0.4039 H   0  0  0  0  0  0  0  0  0  0  0  0
    1.3130   -1.8135    1.2638 H   0  0  0  0  0  0  0  0  0  0  0  0
    2.0711    0.6100    0.7242 H   0  0  0  0  0  0  0  0  0  0  0  0
   -0.5162   -0.8742    1.7487 H   0  0  0  0  0  0  0  0  0  0  0  0
   -1.5189    0.5678    1.4574 H   0  0  0  0  0  0  0  0  0  0  0  0
    0.1422    0.7610    2.1089 H   0  0  0  0  0  0  0  0  0  0  0  0
    0.1467    1.7838   -1.5067 H   0  0  0  0  0  0  0  0  0  0  0  0
    0.5539    2.3623    0.1594 H   0  0  0  0  0  0  0  0  0  0  0  0
   -1.1455    2.0306   -0.3064 H   0  0  0  0  0  0  0  0  0  0  0  0
   -0.3292   -0.4871   -1.9319 H   0  0  0  0  0  0  0  0  0  0  0  0
   -0.6235   -1.6552   -0.5919 H   0  0  0  0  0  0  0  0  0  0  0  0
   -1.7752   -0.3246   -0.8936 H   0  0  0  0  0  0  0  0  0  0  0  0
    3.3166   -1.3968    2.8412 H   0  0  0  0  0  0  0  0  0  0  0  0
    6.4106   -2.4979    0.3247 H   0  0  0  0  0  0  0  0  0  0  0  0
 16  1  1  0
  1  2  2  0
  2  3  1  0
  3 17  1  0
  3 18  1  0
  3  4  1  0
  4 19  1  1
  4  5  1  0
  5  6  2  0
  5  7  1  0
  4  8  1  0
  8  9  1  0
  9 20  1  0
  9 21  1  0
  9 22  1  0
  8 10  1  0
 10 23  1  0
 10 24  1  0
 10 25  1  0
  8 11  1  0
 11 26  1  0
 11 27  1  0
 11 28  1  0
  2 12  1  0
 12 29  1  0
 12 13  1  0
 13 14  2  0
  1 15  1  0
 13 15  1  0
 15 30  1  0
M  CHG  2   7  -1   8   1
M  END
>  <conformer_energy>  (1) 
25.48

>  <ligand_smiles>  (1) 
C[N+](C)(C)[C@@H](Cc1c[nH]c(=S)[nH]1)C(=O)[O-]

>  <ligand_conf_name>  (1) 
MOL_0_isomer_0_conf_0

>  <ligand_molecule_name>  (1) 
MOL_0_isomer_0

$$$$
