MOL_0_isomer_0_conf_0
     RDKit          3D

 59 61  0  0  0  0  0  0  0  0999 V2000
    4.3637    3.1816   -0.1042 C   0  0  0  0  0  0  0  0  0  0  0  0
    4.6095    1.8380    0.1810 C   0  0  0  0  0  0  0  0  0  0  0  0
    3.6076    0.8517    0.3103 N   0  0  0  0  0  0  0  0  0  0  0  0
    2.2572    0.9856    0.0874 C   0  0  0  0  0  0  0  0  0  0  0  0
    1.6846    1.9710   -0.3591 O   0  0  0  0  0  0  0  0  0  0  0  0
    1.5807   -0.1674    0.4255 N   0  0  0  0  0  0  0  0  0  0  0  0
    0.1426   -0.2805    0.2783 C   0  0  0  0  0  0  0  0  0  0  0  0
   -0.5810    0.2544    1.5170 C   0  0  0  0  0  0  0  0  0  0  0  0
   -2.1300    0.1981    1.4671 C   0  0  0  0  0  0  0  0  0  0  0  0
   -2.6300   -1.2428    1.2715 C   0  0  0  0  0  0  0  0  0  0  0  0
   -2.6739    0.7277    2.8089 C   0  0  0  0  0  0  0  0  0  0  0  0
   -2.6788    1.0836    0.3355 C   0  0  0  0  0  0  0  0  0  0  0  0
    5.9317    1.4323    0.3667 C   0  0  0  0  0  0  0  0  0  0  0  0
    6.1969    0.1464    0.6502 F   0  0  0  0  0  0  0  0  0  0  0  0
    6.9897    2.3284    0.2619 C   0  0  0  0  0  0  0  0  0  0  0  0
    6.7432    3.6785   -0.0273 C   0  0  0  0  0  0  0  0  0  0  0  0
    7.9061    4.6298   -0.1061 C   0  0  0  0  0  0  0  0  0  0  0  0
    5.4136    4.1158   -0.2195 C   0  0  0  0  0  0  0  0  0  0  0  0
    5.1461    5.4776   -0.4749 N   0  0  0  0  0  0  0  0  0  0  0  0
    4.0184    6.2652   -0.1668 C   0  0  0  0  0  0  0  0  0  0  0  0
    3.6366    7.2613   -1.0764 C   0  0  0  0  0  0  0  0  0  0  0  0
    2.4913    8.0316   -0.8566 C   0  0  0  0  0  0  0  0  0  0  0  0
    1.7002    7.8241    0.2742 C   0  0  0  0  0  0  0  0  0  0  0  0
    0.5586    8.6215    0.4385 N   0  0  0  0  0  0  0  0  0  0  0  0
   -0.1714    8.4109    1.4803 C   0  0  0  0  0  0  0  0  0  0  0  0
    0.0943    7.4741    2.4456 N   0  0  0  0  0  0  0  0  0  0  0  0
   -0.7907    7.3205    3.5817 C   0  0  0  0  0  0  0  0  0  0  0  0
    1.2205    6.6588    2.3812 C   0  0  0  0  0  0  0  0  0  0  0  0
    1.5017    5.8503    3.2601 O   0  0  0  0  0  0  0  0  0  0  0  0
    2.0730    6.8392    1.1900 C   0  0  0  0  0  0  0  0  0  0  0  0
    3.2169    6.0673    0.9722 C   0  0  0  0  0  0  0  0  0  0  0  0
    3.5913    5.1548    1.8830 F   0  0  0  0  0  0  0  0  0  0  0  0
    3.3457    3.5263   -0.2516 H   0  0  0  0  0  0  0  0  0  0  0  0
    3.9428   -0.0684    0.5574 H   0  0  0  0  0  0  0  0  0  0  0  0
    2.0773   -0.9182    0.8772 H   0  0  0  0  0  0  0  0  0  0  0  0
   -0.1605    0.2607   -0.6229 H   0  0  0  0  0  0  0  0  0  0  0  0
   -0.0693   -1.3433    0.1293 H   0  0  0  0  0  0  0  0  0  0  0  0
   -0.2279   -0.3091    2.3920 H   0  0  0  0  0  0  0  0  0  0  0  0
   -0.2673    1.2930    1.6908 H   0  0  0  0  0  0  0  0  0  0  0  0
   -3.7227   -1.2938    1.3433 H   0  0  0  0  0  0  0  0  0  0  0  0
   -2.3531   -1.6386    0.2887 H   0  0  0  0  0  0  0  0  0  0  0  0
   -2.2154   -1.9115    2.0341 H   0  0  0  0  0  0  0  0  0  0  0  0
   -3.7697    0.7141    2.8275 H   0  0  0  0  0  0  0  0  0  0  0  0
   -2.3517    1.7600    2.9869 H   0  0  0  0  0  0  0  0  0  0  0  0
   -2.3203    0.1172    3.6476 H   0  0  0  0  0  0  0  0  0  0  0  0
   -2.3062    2.1107    0.4217 H   0  0  0  0  0  0  0  0  0  0  0  0
   -2.3959    0.7041   -0.6520 H   0  0  0  0  0  0  0  0  0  0  0  0
   -3.7740    1.1245    0.3638 H   0  0  0  0  0  0  0  0  0  0  0  0
    7.9999    1.9624    0.4189 H   0  0  0  0  0  0  0  0  0  0  0  0
    8.8505    4.1322    0.1397 H   0  0  0  0  0  0  0  0  0  0  0  0
    7.7751    5.4523    0.6052 H   0  0  0  0  0  0  0  0  0  0  0  0
    7.9978    5.0331   -1.1199 H   0  0  0  0  0  0  0  0  0  0  0  0
    5.8619    5.9540   -1.0093 H   0  0  0  0  0  0  0  0  0  0  0  0
    4.2159    7.4301   -1.9812 H   0  0  0  0  0  0  0  0  0  0  0  0
    2.2040    8.7933   -1.5780 H   0  0  0  0  0  0  0  0  0  0  0  0
   -1.0822    9.0075    1.6463 H   0  0  0  0  0  0  0  0  0  0  0  0
   -1.6490    7.9945    3.5165 H   0  0  0  0  0  0  0  0  0  0  0  0
   -0.2314    7.5308    4.4987 H   0  0  0  0  0  0  0  0  0  0  0  0
   -1.1422    6.2848    3.6229 H   0  0  0  0  0  0  0  0  0  0  0  0
 33  1  1  0
  1  2  2  0
  2  3  1  0
  3 34  1  0
  3  4  1  0
  4  5  2  0
  4  6  1  0
  6 35  1  0
  6  7  1  0
  7 36  1  0
  7 37  1  0
  7  8  1  0
  8 38  1  0
  8 39  1  0
  8  9  1  0
  9 10  1  0
 10 40  1  0
 10 41  1  0
 10 42  1  0
  9 11  1  0
 11 43  1  0
 11 44  1  0
 11 45  1  0
  9 12  1  0
 12 46  1  0
 12 47  1  0
 12 48  1  0
  2 13  1  0
 13 14  1  0
 13 15  2  0
 15 49  1  0
 15 16  1  0
 16 17  1  0
 17 50  1  0
 17 51  1  0
 17 52  1  0
  1 18  1  0
 16 18  2  0
 18 19  1  0
 19 53  1  0
 19 20  1  0
 20 21  2  0
 21 54  1  0
 21 22  1  0
 22 55  1  0
 22 23  2  0
 23 24  1  0
 24 25  2  0
 25 56  1  0
 25 26  1  0
 26 27  1  0
 27 57  1  0
 27 58  1  0
 27 59  1  0
 26 28  1  0
 28 29  2  0
 23 30  1  0
 28 30  1  0
 20 31  1  0
 30 31  2  0
 31 32  1  0
M  END
>  <conformer_energy>  (1) 
-48.23

>  <ligand_smiles>  (1) 
Cc1cc(F)c(NC(=O)NCCC(C)(C)C)cc1Nc1ccc2ncn(C)c(=O)c2c1F

>  <ligand_conf_name>  (1) 
MOL_0_isomer_0_conf_0

>  <ligand_molecule_name>  (1) 
MOL_0_isomer_0

$$$$
