MOL_0_isomer_0_conf_0
     RDKit          3D

 40 42  0  0  0  0  0  0  0  0999 V2000
    1.3657   -1.0551   -3.6675 O   0  0  0  0  0  0  0  0  0  0  0  0
    1.5359   -1.1672   -2.2345 C   0  0  1  0  0  0  0  0  0  0  0  0
    2.6797   -2.1358   -1.9894 C   0  0  1  0  0  0  0  0  0  0  0  0
    2.6571   -3.2213   -2.9237 O   0  0  0  0  0  0  0  0  0  0  0  0
    3.8821   -1.2172   -2.2035 C   0  0  2  0  0  0  0  0  0  0  0  0
    5.0903   -1.6222   -1.5147 N   0  0  0  0  0  0  0  0  0  0  0  0
    6.2746   -1.9478   -2.1277 C   0  0  0  0  0  0  0  0  0  0  0  0
    7.2121   -2.2733   -1.2616 N   0  0  0  0  0  0  0  0  0  0  0  0
    6.5997   -2.1529   -0.0286 C   0  0  0  0  0  0  0  0  0  0  0  0
    7.0626   -2.3570    1.2829 C   0  0  0  0  0  0  0  0  0  0  0  0
    8.3497   -2.7533    1.5714 N   0  0  0  0  0  0  0  0  0  0  0  0
    6.2089   -2.1533    2.3121 N   0  0  0  0  0  0  0  0  0  0  0  0
    4.9460   -1.7648    2.0259 C   0  0  0  0  0  0  0  0  0  0  0  0
    4.3908   -1.5584    0.8175 N   0  0  0  0  0  0  0  0  0  0  0  0
    5.2789   -1.7577   -0.1675 C   0  0  0  0  0  0  0  0  0  0  0  0
    3.5118    0.1116   -1.7853 O   0  0  0  0  0  0  0  0  0  0  0  0
    2.0699    0.1452   -1.6518 C   0  0  2  0  0  0  0  0  0  0  0  0
    1.6815    0.3492   -0.1895 C   0  0  0  0  0  0  0  0  0  0  0  0
    0.2718    0.3367   -0.0973 O   0  0  0  0  0  0  0  0  0  0  0  0
   -0.3878    0.4157    1.3838 P   0  0  1  0  0  5  0  0  0  0  0  0
    0.3256    1.5090    2.1436 O   0  0  0  0  0  0  0  0  0  0  0  0
   -1.8878    0.4326    1.2395 O   0  0  0  0  0  1  0  0  0  0  0  0
    0.0667   -0.9905    2.0271 O   0  0  0  0  0  0  0  0  0  0  0  0
   -0.0899   -2.1832    1.4609 C   0  0  0  0  0  0  0  0  0  0  0  0
   -0.4287   -2.4510    0.3194 O   0  0  0  0  0  0  0  0  0  0  0  0
    0.2469   -3.1537    2.3492 N   0  0  0  0  0  0  0  0  0  0  0  0
    0.5881   -0.4744   -3.7853 H   0  0  0  0  0  0  0  0  0  0  0  0
    0.5826   -1.5130   -1.8319 H   0  0  0  0  0  0  0  0  0  0  0  0
    2.6337   -2.5423   -0.9746 H   0  0  0  0  0  0  0  0  0  0  0  0
    2.1190   -2.8894   -3.6742 H   0  0  0  0  0  0  0  0  0  0  0  0
    4.1300   -1.1592   -3.2714 H   0  0  0  0  0  0  0  0  0  0  0  0
    6.3952   -1.9289   -3.2035 H   0  0  0  0  0  0  0  0  0  0  0  0
    8.6061   -2.8579    2.5387 H   0  0  0  0  0  0  0  0  0  0  0  0
    8.9971   -2.8921    0.8099 H   0  0  0  0  0  0  0  0  0  0  0  0
    4.2945   -1.5986    2.8796 H   0  0  0  0  0  0  0  0  0  0  0  0
    1.7054    0.9940   -2.2423 H   0  0  0  0  0  0  0  0  0  0  0  0
    2.0750    1.3072    0.1669 H   0  0  0  0  0  0  0  0  0  0  0  0
    2.1047   -0.4342    0.4427 H   0  0  0  0  0  0  0  0  0  0  0  0
    0.1774   -4.1172    2.0669 H   0  0  0  0  0  0  0  0  0  0  0  0
    0.5060   -2.8859    3.2850 H   0  0  0  0  0  0  0  0  0  0  0  0
 27  1  1  0
  1  2  1  0
  2 28  1  1
  2  3  1  0
  3 29  1  1
  3  4  1  0
  4 30  1  0
  3  5  1  0
  5 31  1  6
  5  6  1  0
  6  7  1  0
  7 32  1  0
  7  8  2  0
  8  9  1  0
  9 10  1  0
 10 11  1  0
 11 33  1  0
 11 34  1  0
 10 12  2  0
 12 13  1  0
 13 35  1  0
 13 14  2  0
  9 15  2  0
  6 15  1  0
 14 15  1  0
  5 16  1  0
  2 17  1  0
 16 17  1  0
 17 36  1  6
 17 18  1  0
 18 37  1  0
 18 38  1  0
 18 19  1  0
 19 20  1  0
 20 21  2  0
 20 22  1  6
 20 23  1  0
 23 24  1  0
 24 25  2  0
 24 26  1  0
 26 39  1  0
 26 40  1  0
M  CHG  1  22  -1
M  END
>  <conformer_energy>  (1) 
-88.72

>  <ligand_smiles>  (1) 
NC(=O)O[P@](=O)([O-])OC[C@H]1O[C@@H](n2cnc3c(N)ncnc32)[C@H](O)[C@@H]1O

>  <ligand_conf_name>  (1) 
MOL_0_isomer_0_conf_0

>  <ligand_molecule_name>  (1) 
MOL_0_isomer_0

$$$$
