1YVF - prepared_ligand_conf_0
     RDKit          3D

 43 45  0  0  0  0  0  0  0  0999 V2000
    3.7664    1.4923   -2.4977 C   0  0  0  0  0  0  0  0  0  0  0  0
    3.3044    0.6983   -1.5109 C   0  0  0  0  0  0  0  0  0  0  0  0
    4.4057   -0.2274   -0.8993 C   0  0  0  0  0  0  0  0  0  0  0  0
    4.4010   -1.4140   -1.3446 O   0  0  0  0  0  0  0  0  0  0  0  0
    5.2426    0.3625   -0.1525 O   0  0  0  0  0  0  0  0  0  0  0  0
    1.9659    0.6881   -1.1467 N   0  0  0  0  0  0  0  0  0  0  0  0
    1.4124   -0.0154   -0.0950 C   0  0  0  0  0  0  0  0  0  0  0  0
    2.0035   -0.6149    0.7936 O   0  0  0  0  0  0  0  0  0  0  0  0
   -0.0773    0.0460   -0.0307 C   0  0  0  0  0  0  0  0  0  0  0  0
   -0.6946    0.0495    1.2264 C   0  0  0  0  0  0  0  0  0  0  0  0
   -2.0857    0.1104    1.3256 C   0  0  0  0  0  0  0  0  0  0  0  0
   -2.8652    0.1578    0.1697 C   0  0  0  0  0  0  0  0  0  0  0  0
   -2.2574    0.1351   -1.0861 C   0  0  0  0  0  0  0  0  0  0  0  0
   -0.8656    0.0744   -1.1893 C   0  0  0  0  0  0  0  0  0  0  0  0
    2.9692    2.4510   -3.2646 C   0  0  0  0  0  0  0  0  0  0  0  0
    2.6397    2.1729   -4.5946 C   0  0  0  0  0  0  0  0  0  0  0  0
    1.8731    3.0782   -5.3310 C   0  0  0  0  0  0  0  0  0  0  0  0
    1.4495    4.2705   -4.7427 C   0  0  0  0  0  0  0  0  0  0  0  0
    0.6820    5.1100   -5.5190 O   0  0  0  0  0  0  0  0  0  0  0  0
    0.9935    6.4522   -5.4897 C   0  0  0  0  0  0  0  0  0  0  0  0
    2.3035    6.8944   -5.7137 C   0  0  0  0  0  0  0  0  0  0  0  0
    2.5908    8.2602   -5.7161 C   0  0  0  0  0  0  0  0  0  0  0  0
    1.5706    9.1887   -5.5122 C   0  0  0  0  0  0  0  0  0  0  0  0
    0.2591    8.7538   -5.3119 C   0  0  0  0  0  0  0  0  0  0  0  0
   -0.0310    7.3867   -5.3079 C   0  0  0  0  0  0  0  0  0  0  0  0
   -1.8298    6.8484   -5.0372 Br  0  0  0  0  0  0  0  0  0  0  0  0
    1.7522    4.5434   -3.4062 C   0  0  0  0  0  0  0  0  0  0  0  0
    2.5198    3.6369   -2.6722 C   0  0  0  0  0  0  0  0  0  0  0  0
    4.8197    1.4395   -2.7699 H   0  0  0  0  0  0  0  0  0  0  0  0
    1.3587    1.2774   -1.6958 H   0  0  0  0  0  0  0  0  0  0  0  0
   -0.0842    0.0051    2.1265 H   0  0  0  0  0  0  0  0  0  0  0  0
   -2.5566    0.1152    2.3047 H   0  0  0  0  0  0  0  0  0  0  0  0
   -3.9483    0.2007    0.2477 H   0  0  0  0  0  0  0  0  0  0  0  0
   -2.8658    0.1535   -1.9864 H   0  0  0  0  0  0  0  0  0  0  0  0
   -0.4074    0.0201   -2.1736 H   0  0  0  0  0  0  0  0  0  0  0  0
    2.9734    1.2446   -5.0536 H   0  0  0  0  0  0  0  0  0  0  0  0
    1.6141    2.8546   -6.3615 H   0  0  0  0  0  0  0  0  0  0  0  0
    3.1041    6.1790   -5.8862 H   0  0  0  0  0  0  0  0  0  0  0  0
    3.6117    8.5974   -5.8786 H   0  0  0  0  0  0  0  0  0  0  0  0
    1.7965   10.2521   -5.5131 H   0  0  0  0  0  0  0  0  0  0  0  0
   -0.5289    9.4866   -5.1602 H   0  0  0  0  0  0  0  0  0  0  0  0
    1.3969    5.4499   -2.9260 H   0  0  0  0  0  0  0  0  0  0  0  0
    2.7670    3.8493   -1.6334 H   0  0  0  0  0  0  0  0  0  0  0  0
 29  1  1  0
  1  2  2  0
  2  3  1  0
  3  4  2  0
  3  5  1  0
  2  6  1  0
  6 30  1  0
  6  7  1  0
  7  8  2  0
  7  9  1  0
  9 10  2  0
 10 31  1  0
 10 11  1  0
 11 32  1  0
 11 12  2  0
 12 33  1  0
 12 13  1  0
 13 34  1  0
  9 14  1  0
 13 14  2  0
 14 35  1  0
  1 15  1  0
 15 16  2  0
 16 36  1  0
 16 17  1  0
 17 37  1  0
 17 18  2  0
 18 19  1  0
 19 20  1  0
 20 21  2  0
 21 38  1  0
 21 22  1  0
 22 39  1  0
 22 23  2  0
 23 40  1  0
 23 24  1  0
 24 41  1  0
 20 25  1  0
 24 25  2  0
 25 26  1  0
 18 27  1  0
 27 42  1  0
 15 28  1  0
 27 28  2  0
 28 43  1  0
M  CHG  1   5  -1
M  END
>  <conformer_energy>  (1) 
133.11

>  <ligand_smiles>  (1) 
O=C([O-])/C(=C/c1ccc(Oc2ccccc2Br)cc1)NC(=O)c1ccccc1

>  <ligand_conf_name>  (1) 
1YVF - prepared_ligand_conf_0

>  <ligand_molecule_name>  (1) 
1YVF - prepared_ligand

>  <fragInfo>  (1) 
9 10 11 12 13 14 31 32 33 34 35
1 2 29
3 4 5
6 7 8 30
15 16 17 18 27 28 36 37 42 43
19
20 21 22 23 24 25 26 38 39 40 41


>  <torsionInfo>  (1) 
7 9 3 0
1 15 1 4
2 3 1 2
2 6 1 3
18 19 4 5
19 20 5 6


>  <atomInfo>  (1) 
1  -0.029379 C 
2  0.064536  C 
3  0.087883  C 
4  -0.543202 OA
5  -0.543202 OA
6  -0.320345 N 
7  0.255208  C 
8  -0.268929 OA
9  0.039666  A 
10 -0.049452 A 
11 -0.061473 A 
12 -0.062220 A 
13 -0.061473 A 
14 -0.049452 A 
15 -0.023265 A 
16 -0.051202 A 
17 -0.018714 A 
18 0.127032  A 
19 -0.456191 OA
20 0.141097  A 
21 -0.018122 A 
22 -0.058480 A 
23 -0.060873 A 
24 -0.044189 A 
25 0.060187  A 
26 -0.046759 Br
27 -0.018714 A 
28 -0.051202 A 
29 0.065175  H 
30 0.169862  HD
31 0.063105  H 
32 0.062293  H 
33 0.062269  H 
34 0.062293  H 
35 0.063105  H 
36 0.063041  H 
37 0.066235  H 
38 0.066256  H 
39 0.062407  H 
40 0.062313  H 
41 0.063600  H 
42 0.066235  H 
43 0.063041  H 


$$$$
