MOL_0_isomer_0_conf_0
     RDKit          3D

 26 27  0  0  0  0  0  0  0  0999 V2000
   -1.3690    1.7791    3.5091 O   0  0  0  0  0  0  0  0  0  0  0  0
   -0.4424    0.7181    3.2569 C   0  0  1  0  0  0  0  0  0  0  0  0
   -0.0927    0.7307    1.7582 C   0  0  2  0  0  0  0  0  0  0  0  0
   -1.2014    0.2403    0.9952 O   0  0  0  0  0  0  0  0  0  0  0  0
    1.1651   -0.1347    1.4605 C   0  0  2  0  0  0  0  0  0  0  0  0
    1.4569   -0.1426    0.0915 O   0  0  0  0  0  0  0  0  0  0  0  0
    1.0700   -1.5607    2.0186 C   0  0  0  0  0  0  0  0  0  0  0  0
    1.6006   -1.4592    3.4555 C   0  0  0  0  0  0  0  0  0  0  0  0
    1.9817    0.0140    3.6370 C   0  0  2  0  0  0  0  0  0  0  0  0
    0.8108    0.8987    4.1355 C   0  0  2  0  0  0  0  0  0  0  0  0
    0.4997    0.5624    5.4834 O   0  0  0  0  0  0  0  0  0  0  0  0
    2.2993    0.4168    2.2326 N   0  0  0  0  0  4  0  0  0  0  0  0
   -1.9224    1.5288    4.2748 H   0  0  0  0  0  0  0  0  0  0  0  0
   -0.9714   -0.2082    3.5136 H   0  0  0  0  0  0  0  0  0  0  0  0
    0.0784    1.7571    1.4091 H   0  0  0  0  0  0  0  0  0  0  0  0
   -1.9674    0.8143    1.2080 H   0  0  0  0  0  0  0  0  0  0  0  0
    0.6093   -0.3314   -0.3658 H   0  0  0  0  0  0  0  0  0  0  0  0
    0.0489   -1.9554    1.9898 H   0  0  0  0  0  0  0  0  0  0  0  0
    1.6894   -2.2557    1.4383 H   0  0  0  0  0  0  0  0  0  0  0  0
    2.4902   -2.0925    3.5566 H   0  0  0  0  0  0  0  0  0  0  0  0
    0.8705   -1.8072    4.1928 H   0  0  0  0  0  0  0  0  0  0  0  0
    2.8761    0.1377    4.2555 H   0  0  0  0  0  0  0  0  0  0  0  0
    1.1253    1.9501    4.1315 H   0  0  0  0  0  0  0  0  0  0  0  0
   -0.0297    1.2882    5.8682 H   0  0  0  0  0  0  0  0  0  0  0  0
    3.1527   -0.0347    1.8763 H   0  0  0  0  0  0  0  0  0  0  0  0
    2.4234    1.4238    2.0703 H   0  0  0  0  0  0  0  0  0  0  0  0
 13  1  1  0
  1  2  1  0
  2 14  1  1
  2  3  1  0
  3 15  1  6
  3  4  1  0
  4 16  1  0
  3  5  1  0
  5  6  1  6
  6 17  1  0
  5  7  1  0
  7 18  1  0
  7 19  1  0
  7  8  1  0
  8 20  1  0
  8 21  1  0
  8  9  1  0
  9 22  1  1
  2 10  1  0
  9 10  1  0
 10 23  1  1
 10 11  1  0
 11 24  1  0
  5 12  1  0
  9 12  1  0
 12 25  1  0
 12 26  1  0
M  CHG  1  12   1
M  END
>  <conformer_energy>  (1) 
64.26

>  <ligand_smiles>  (1) 
O[C@@H]1[C@@H](O)[C@H](O)[C@]2(O)CC[C@H]1[NH2+]2

>  <ligand_conf_name>  (1) 
MOL_0_isomer_0_conf_0

>  <ligand_molecule_name>  (1) 
MOL_0_isomer_0

$$$$
