MOL_0_isomer_0_conf_0
     RDKit          3D

 38 38  0  0  0  0  0  0  0  0999 V2000
    0.8699    2.7316    1.1483 C   0  0  0  0  0  0  0  0  0  0  0  0
    1.9379    2.5922    0.0547 C   0  0  0  0  0  0  0  0  0  0  0  0
    2.3864    1.1570   -0.1152 C   0  0  0  0  0  0  0  0  0  0  0  0
    3.7372    0.9822   -0.2519 O   0  0  0  0  0  0  0  0  0  0  0  0
    4.0236   -0.3357   -0.5350 N   0  0  0  0  0  0  0  0  0  0  0  0
    2.8443   -0.9576   -0.4914 C   0  0  0  0  0  0  0  0  0  0  0  0
    2.7770   -2.2292   -0.9254 O   0  0  0  0  0  0  0  0  0  0  0  0
    3.4639   -3.1403   -0.0555 C   0  0  0  0  0  0  0  0  0  0  0  0
    2.2882   -3.6509    1.3062 P   0  0  0  0  0  5  0  0  0  0  0  0
    2.2137   -2.4516    2.2563 O   0  0  0  0  0  0  0  0  0  0  0  0
    0.9258   -3.8117    0.6237 O   0  0  0  0  0  1  0  0  0  0  0  0
    2.8861   -4.9107    1.8955 O   0  0  0  0  0  1  0  0  0  0  0  0
    1.7601   -0.0754   -0.2622 C   0  0  0  0  0  0  0  0  0  0  0  0
    0.2990   -0.4199   -0.2905 C   0  0  0  0  0  0  0  0  0  0  0  0
   -0.3604   -0.5695    1.0859 C   0  0  1  0  0  0  0  0  0  0  0  0
   -1.8862   -0.2271    1.0617 C   0  0  0  0  0  0  0  0  0  0  0  0
   -2.2623    0.6900    0.2778 O   0  0  0  0  0  0  0  0  0  0  0  0
   -2.5772   -0.8939    1.8948 O   0  0  0  0  0  1  0  0  0  0  0  0
   -0.0563   -1.8869    1.6858 N   0  0  0  0  0  4  0  0  0  0  0  0
    3.1228    3.5014    0.4543 C   0  0  0  0  0  0  0  0  0  0  0  0
    1.3689    3.1065   -1.2803 C   0  0  0  0  0  0  0  0  0  0  0  0
   -0.0714    2.2608    0.8553 H   0  0  0  0  0  0  0  0  0  0  0  0
    0.6408    3.7854    1.3471 H   0  0  0  0  0  0  0  0  0  0  0  0
    1.2004    2.2811    2.0910 H   0  0  0  0  0  0  0  0  0  0  0  0
    3.6971   -4.0386   -0.6353 H   0  0  0  0  0  0  0  0  0  0  0  0
    4.3922   -2.7415    0.3689 H   0  0  0  0  0  0  0  0  0  0  0  0
   -0.1956    0.3599   -0.8804 H   0  0  0  0  0  0  0  0  0  0  0  0
    0.1518   -1.3405   -0.8706 H   0  0  0  0  0  0  0  0  0  0  0  0
    0.0683    0.1449    1.7963 H   0  0  0  0  0  0  0  0  0  0  0  0
    0.1012   -2.7026    1.0236 H   0  0  0  0  0  0  0  0  0  0  0  0
   -0.7676   -2.2008    2.3430 H   0  0  0  0  0  0  0  0  0  0  0  0
    0.8981   -1.9543    2.1443 H   0  0  0  0  0  0  0  0  0  0  0  0
    3.9034    3.5124   -0.3157 H   0  0  0  0  0  0  0  0  0  0  0  0
    3.5837    3.1650    1.3908 H   0  0  0  0  0  0  0  0  0  0  0  0
    2.7975    4.5385    0.5980 H   0  0  0  0  0  0  0  0  0  0  0  0
    2.1130    3.0366   -2.0828 H   0  0  0  0  0  0  0  0  0  0  0  0
    1.0600    4.1552   -1.2020 H   0  0  0  0  0  0  0  0  0  0  0  0
    0.4935    2.5287   -1.5968 H   0  0  0  0  0  0  0  0  0  0  0  0
 22  1  1  0
  1 23  1  0
  1 24  1  0
  1  2  1  0
  2  3  1  0
  3  4  1  0
  4  5  1  0
  5  6  2  0
  6  7  1  0
  7  8  1  0
  8 25  1  0
  8 26  1  0
  8  9  1  0
  9 10  2  0
  9 11  1  0
  9 12  1  0
  3 13  2  0
  6 13  1  0
 13 14  1  0
 14 27  1  0
 14 28  1  0
 14 15  1  0
 15 29  1  1
 15 16  1  0
 16 17  2  0
 16 18  1  0
 15 19  1  0
 19 30  1  0
 19 31  1  0
 19 32  1  0
  2 20  1  0
 20 33  1  0
 20 34  1  0
 20 35  1  0
  2 21  1  0
 21 36  1  0
 21 37  1  0
 21 38  1  0
M  CHG  4  11  -1  12  -1  18  -1  19   1
M  END
>  <conformer_energy>  (1) 
-45.25

>  <ligand_smiles>  (1) 
CC(C)(C)c1onc(OCP(=O)([O-])[O-])c1C[C@H]([NH3+])C(=O)[O-]

>  <ligand_conf_name>  (1) 
MOL_0_isomer_0_conf_0

>  <ligand_molecule_name>  (1) 
MOL_0_isomer_0

$$$$
