MOL_0_isomer_0_chiral_N_isomer_0_conf_0
     RDKit          3D

 43 46  0  0  0  0  0  0  0  0999 V2000
    9.2595    2.3019   -2.1798 C   0  0  0  0  0  0  0  0  0  0  0  0
   10.1178    1.5166   -2.8741 N   0  0  0  0  0  0  0  0  0  0  0  0
    9.6858    0.3012   -3.2508 C   0  0  0  0  0  0  0  0  0  0  0  0
   10.5344   -0.5345   -3.9643 C   0  0  0  0  0  0  0  0  0  0  0  0
   10.1352   -1.8091   -4.3771 C   0  0  0  0  0  0  0  0  0  0  0  0
    8.8584   -2.2669   -4.0726 C   0  0  0  0  0  0  0  0  0  0  0  0
    7.9857   -1.4491   -3.3577 C   0  0  0  0  0  0  0  0  0  0  0  0
    8.3891   -0.1668   -2.9447 C   0  0  0  0  0  0  0  0  0  0  0  0
    7.5295    0.6774   -2.2237 C   0  0  0  0  0  0  0  0  0  0  0  0
    7.9656    1.9410   -1.8357 C   0  0  0  0  0  0  0  0  0  0  0  0
    7.2443    2.8705   -1.1231 O   0  0  0  0  0  0  0  0  0  0  0  0
    5.8931    2.6634   -0.9790 C   0  0  0  0  0  0  0  0  0  0  0  0
    4.9971    3.1011   -1.9626 C   0  0  0  0  0  0  0  0  0  0  0  0
    5.5434    3.8886   -3.3988 Cl  0  0  0  0  0  0  0  0  0  0  0  0
    3.6231    2.9091   -1.7997 C   0  0  0  0  0  0  0  0  0  0  0  0
    3.1437    2.3061   -0.6367 C   0  0  0  0  0  0  0  0  0  0  0  0
    1.7410    2.0341   -0.4865 N   0  0  0  0  0  0  0  0  0  0  0  0
    1.2594    0.5587   -1.2087 S   0  0  0  0  0  6  0  0  0  0  0  0
    2.2013   -0.4927   -0.9015 O   0  0  0  0  0  0  0  0  0  0  0  0
    0.9440    0.9058   -2.5801 O   0  0  0  0  0  0  0  0  0  0  0  0
   -0.2647    0.2051   -0.3766 C   0  0  0  0  0  0  0  0  0  0  0  0
   -1.4443    0.1747   -1.1392 C   0  0  0  0  0  0  0  0  0  0  0  0
   -2.6666   -0.1119   -0.5288 C   0  0  0  0  0  0  0  0  0  0  0  0
   -2.7103   -0.3711    0.8381 C   0  0  0  0  0  0  0  0  0  0  0  0
   -4.2152   -0.7224    1.5919 Cl  0  0  0  0  0  0  0  0  0  0  0  0
   -1.5430   -0.3476    1.5992 C   0  0  0  0  0  0  0  0  0  0  0  0
   -0.3121   -0.0611    0.9947 C   0  0  0  0  0  0  0  0  0  0  0  0
    1.0668   -0.0497    2.0306 Cl  0  0  0  0  0  0  0  0  0  0  0  0
    4.0268    1.8800    0.3540 C   0  0  0  0  0  0  0  0  0  0  0  0
    5.3991    2.0741    0.1909 C   0  0  0  0  0  0  0  0  0  0  0  0
    6.4561    1.5595    1.4548 Cl  0  0  0  0  0  0  0  0  0  0  0  0
    9.6582    3.2727   -1.8981 H   0  0  0  0  0  0  0  0  0  0  0  0
   11.5349   -0.1829   -4.2046 H   0  0  0  0  0  0  0  0  0  0  0  0
   10.8246   -2.4383   -4.9339 H   0  0  0  0  0  0  0  0  0  0  0  0
    8.5425   -3.2574   -4.3899 H   0  0  0  0  0  0  0  0  0  0  0  0
    6.9889   -1.8169   -3.1240 H   0  0  0  0  0  0  0  0  0  0  0  0
    6.5345    0.3235   -1.9736 H   0  0  0  0  0  0  0  0  0  0  0  0
    2.9382    3.2213   -2.5842 H   0  0  0  0  0  0  0  0  0  0  0  0
    1.1839    2.7684   -0.9315 H   0  0  0  0  0  0  0  0  0  0  0  0
   -1.4248    0.3644   -2.2117 H   0  0  0  0  0  0  0  0  0  0  0  0
   -3.5767   -0.1360   -1.1244 H   0  0  0  0  0  0  0  0  0  0  0  0
   -1.5923   -0.5547    2.6663 H   0  0  0  0  0  0  0  0  0  0  0  0
    3.6488    1.3961    1.2506 H   0  0  0  0  0  0  0  0  0  0  0  0
 32  1  1  0
  1  2  2  0
  2  3  1  0
  3  4  2  0
  4 33  1  0
  4  5  1  0
  5 34  1  0
  5  6  2  0
  6 35  1  0
  6  7  1  0
  7 36  1  0
  3  8  1  0
  7  8  2  0
  8  9  1  0
  9 37  1  0
  1 10  1  0
  9 10  2  0
 10 11  1  0
 11 12  1  0
 12 13  2  0
 13 14  1  0
 13 15  1  0
 15 38  1  0
 15 16  2  0
 16 17  1  0
 17 39  1  0
 17 18  1  0
 18 19  2  0
 18 20  2  0
 18 21  1  0
 21 22  2  0
 22 40  1  0
 22 23  1  0
 23 41  1  0
 23 24  2  0
 24 25  1  0
 24 26  1  0
 26 42  1  0
 21 27  1  0
 26 27  2  0
 27 28  1  0
 16 29  1  0
 29 43  1  0
 12 30  1  0
 29 30  2  0
 30 31  1  0
M  END
>  <conformer_energy>  (1) 
26.19

>  <ligand_smiles>  (1) 
O=S(=O)(Nc1cc(Cl)c(Oc2cnc3ccccc3c2)c(Cl)c1)c1ccc(Cl)cc1Cl

>  <ligand_conf_name>  (1) 
MOL_0_isomer_0_chiral_N_isomer_0_conf_0

>  <ligand_molecule_name>  (1) 
MOL_0_isomer_0_chiral_N_isomer_0

$$$$
MOL_0_isomer_0_chiral_N_isomer_1_conf_0
     RDKit          3D

 43 46  0  0  0  0  0  0  0  0999 V2000
    7.9200    0.2335    0.3617 C   0  0  0  0  0  0  0  0  0  0  0  0
    8.7291    0.1399    1.4462 N   0  0  0  0  0  0  0  0  0  0  0  0
   10.0575    0.2077    1.2510 C   0  0  0  0  0  0  0  0  0  0  0  0
   10.9150    0.1160    2.3390 C   0  0  0  0  0  0  0  0  0  0  0  0
   12.3036    0.1793    2.1884 C   0  0  0  0  0  0  0  0  0  0  0  0
   12.8562    0.3378    0.9226 C   0  0  0  0  0  0  0  0  0  0  0  0
   12.0189    0.4326   -0.1872 C   0  0  0  0  0  0  0  0  0  0  0  0
   10.6228    0.3689   -0.0316 C   0  0  0  0  0  0  0  0  0  0  0  0
    9.7538    0.4620   -1.1277 C   0  0  0  0  0  0  0  0  0  0  0  0
    8.3766    0.4001   -0.9370 C   0  0  0  0  0  0  0  0  0  0  0  0
    7.6102    0.4960   -2.0749 O   0  0  0  0  0  0  0  0  0  0  0  0
    6.2525    0.6524   -1.9291 C   0  0  0  0  0  0  0  0  0  0  0  0
    5.4092   -0.4618   -2.0192 C   0  0  0  0  0  0  0  0  0  0  0  0
    6.0398   -2.0512   -2.2550 Cl  0  0  0  0  0  0  0  0  0  0  0  0
    4.0262   -0.3069   -1.9159 C   0  0  0  0  0  0  0  0  0  0  0  0
    3.4831    0.9672   -1.7560 C   0  0  0  0  0  0  0  0  0  0  0  0
    2.0637    1.1003   -1.5899 N   0  0  0  0  0  0  0  0  0  0  0  0
    1.5532    1.0707    0.0516 S   0  0  0  0  0  6  0  0  0  0  0  0
    1.3204    2.4646    0.3601 O   0  0  0  0  0  0  0  0  0  0  0  0
    2.4488    0.2270    0.8092 O   0  0  0  0  0  0  0  0  0  0  0  0
   -0.0129    0.2469   -0.0147 C   0  0  0  0  0  0  0  0  0  0  0  0
   -0.3949   -0.4438   -1.1752 C   0  0  0  0  0  0  0  0  0  0  0  0
   -1.6354   -1.0833   -1.2301 C   0  0  0  0  0  0  0  0  0  0  0  0
   -2.4878   -1.0366   -0.1297 C   0  0  0  0  0  0  0  0  0  0  0  0
   -4.0149   -1.8240   -0.2008 Cl  0  0  0  0  0  0  0  0  0  0  0  0
   -2.1092   -0.3620    1.0289 C   0  0  0  0  0  0  0  0  0  0  0  0
   -0.8672    0.2807    1.0927 C   0  0  0  0  0  0  0  0  0  0  0  0
   -0.4716    1.0574    2.5826 Cl  0  0  0  0  0  0  0  0  0  0  0  0
    4.3113    2.0864   -1.6737 C   0  0  0  0  0  0  0  0  0  0  0  0
    5.6954    1.9289   -1.7774 C   0  0  0  0  0  0  0  0  0  0  0  0
    6.6820    3.3447   -1.7227 Cl  0  0  0  0  0  0  0  0  0  0  0  0
    6.8647    0.1606    0.6041 H   0  0  0  0  0  0  0  0  0  0  0  0
   10.4892   -0.0084    3.3319 H   0  0  0  0  0  0  0  0  0  0  0  0
   12.9465    0.1042    3.0616 H   0  0  0  0  0  0  0  0  0  0  0  0
   13.9350    0.3876    0.7994 H   0  0  0  0  0  0  0  0  0  0  0  0
   12.4594    0.5568   -1.1738 H   0  0  0  0  0  0  0  0  0  0  0  0
   10.1474    0.5866   -2.1332 H   0  0  0  0  0  0  0  0  0  0  0  0
    3.3750   -1.1759   -1.9574 H   0  0  0  0  0  0  0  0  0  0  0  0
    1.7387    2.0044   -1.9484 H   0  0  0  0  0  0  0  0  0  0  0  0
    0.2584   -0.5065   -2.0419 H   0  0  0  0  0  0  0  0  0  0  0  0
   -1.9292   -1.6187   -2.1305 H   0  0  0  0  0  0  0  0  0  0  0  0
   -2.7796   -0.3414    1.8855 H   0  0  0  0  0  0  0  0  0  0  0  0
    3.8900    3.0775   -1.5241 H   0  0  0  0  0  0  0  0  0  0  0  0
 32  1  1  0
  1  2  2  0
  2  3  1  0
  3  4  2  0
  4 33  1  0
  4  5  1  0
  5 34  1  0
  5  6  2  0
  6 35  1  0
  6  7  1  0
  7 36  1  0
  3  8  1  0
  7  8  2  0
  8  9  1  0
  9 37  1  0
  1 10  1  0
  9 10  2  0
 10 11  1  0
 11 12  1  0
 12 13  2  0
 13 14  1  0
 13 15  1  0
 15 38  1  0
 15 16  2  0
 16 17  1  0
 17 39  1  0
 17 18  1  0
 18 19  2  0
 18 20  2  0
 18 21  1  0
 21 22  2  0
 22 40  1  0
 22 23  1  0
 23 41  1  0
 23 24  2  0
 24 25  1  0
 24 26  1  0
 26 42  1  0
 21 27  1  0
 26 27  2  0
 27 28  1  0
 16 29  1  0
 29 43  1  0
 12 30  1  0
 29 30  2  0
 30 31  1  0
M  END
>  <conformer_energy>  (2) 
28.43

>  <ligand_smiles>  (2) 
O=S(=O)(Nc1cc(Cl)c(Oc2cnc3ccccc3c2)c(Cl)c1)c1ccc(Cl)cc1Cl

>  <ligand_conf_name>  (2) 
MOL_0_isomer_0_chiral_N_isomer_1_conf_0

>  <ligand_molecule_name>  (2) 
MOL_0_isomer_0_chiral_N_isomer_1

$$$$
