MOL_0_isomer_0_conf_0
     RDKit          3D

 40 39  0  0  0  0  0  0  0  0999 V2000
    6.8661   -5.9157   -5.0825 S   0  0  0  0  0  0  0  0  0  0  0  0
    5.4491   -5.1302   -4.2411 C   0  0  0  0  0  0  0  0  0  0  0  0
    5.8929   -3.8768   -3.4878 C   0  0  0  0  0  0  0  0  0  0  0  0
    4.7319   -3.2893   -2.6763 C   0  0  0  0  0  0  0  0  0  0  0  0
    5.1746   -2.0445   -1.9039 C   0  0  0  0  0  0  0  0  0  0  0  0
    4.0717   -1.5337   -0.9706 C   0  0  0  0  0  0  0  0  0  0  0  0
    4.5342   -0.2967   -0.2062 C   0  0  0  0  0  0  0  0  0  0  0  0
    3.6431   -0.0130    0.9811 C   0  0  0  0  0  0  0  0  0  0  0  0
    4.0015   -0.3248    2.1188 O   0  0  0  0  0  0  0  0  0  0  0  0
    2.4759    0.5944    0.6375 N   0  0  0  0  0  0  0  0  0  0  0  0
    1.4347    1.0635    1.5815 C   0  0  2  0  0  0  0  0  0  0  0  0
    0.5687   -0.0582    2.2579 C   0  0  0  0  0  0  0  0  0  0  0  0
    0.1208    0.2179    3.4243 O   0  0  0  0  0  0  0  0  0  0  0  0
    0.3985   -1.1466    1.6230 O   0  0  0  0  0  1  0  0  0  0  0  0
    0.5419    2.0957    0.8511 C   0  0  2  0  0  0  0  0  0  0  0  0
    1.3714    3.1763    0.3823 O   0  0  0  0  0  0  0  0  0  0  0  0
    1.6416    3.2975   -1.2312 P   0  0  0  0  0  5  0  0  0  0  0  0
    2.1454    1.9095   -1.6335 O   0  0  0  0  0  0  0  0  0  0  0  0
    2.6935    4.3956   -1.3522 O   0  0  0  0  0  1  0  0  0  0  0  0
    0.2793    3.6664   -1.8138 O   0  0  0  0  0  1  0  0  0  0  0  0
   -0.5171    2.7385    1.7407 C   0  0  0  0  0  0  0  0  0  0  0  0
    7.6014   -6.0899   -3.9673 H   0  0  0  0  0  0  0  0  0  0  0  0
    5.0199   -5.8672   -3.5515 H   0  0  0  0  0  0  0  0  0  0  0  0
    4.6866   -4.8836   -4.9875 H   0  0  0  0  0  0  0  0  0  0  0  0
    6.2649   -3.1240   -4.1954 H   0  0  0  0  0  0  0  0  0  0  0  0
    6.7167   -4.1177   -2.8008 H   0  0  0  0  0  0  0  0  0  0  0  0
    3.9026   -3.0377   -3.3485 H   0  0  0  0  0  0  0  0  0  0  0  0
    4.3597   -4.0450   -1.9728 H   0  0  0  0  0  0  0  0  0  0  0  0
    5.4596   -1.2570   -2.6111 H   0  0  0  0  0  0  0  0  0  0  0  0
    6.0655   -2.2799   -1.3044 H   0  0  0  0  0  0  0  0  0  0  0  0
    3.7979   -2.3271   -0.2645 H   0  0  0  0  0  0  0  0  0  0  0  0
    3.1700   -1.2998   -1.5527 H   0  0  0  0  0  0  0  0  0  0  0  0
    5.5513   -0.4380    0.1782 H   0  0  0  0  0  0  0  0  0  0  0  0
    4.5625    0.5773   -0.8656 H   0  0  0  0  0  0  0  0  0  0  0  0
    2.3675    0.9600   -0.3306 H   0  0  0  0  0  0  0  0  0  0  0  0
    1.9880    1.5734    2.3843 H   0  0  0  0  0  0  0  0  0  0  0  0
    0.0370    1.6196    0.0021 H   0  0  0  0  0  0  0  0  0  0  0  0
   -1.0307    3.5366    1.1961 H   0  0  0  0  0  0  0  0  0  0  0  0
   -0.0610    3.2046    2.6202 H   0  0  0  0  0  0  0  0  0  0  0  0
   -1.2701    2.0202    2.0665 H   0  0  0  0  0  0  0  0  0  0  0  0
 22  1  1  0
  1  2  1  0
  2 23  1  0
  2 24  1  0
  2  3  1  0
  3 25  1  0
  3 26  1  0
  3  4  1  0
  4 27  1  0
  4 28  1  0
  4  5  1  0
  5 29  1  0
  5 30  1  0
  5  6  1  0
  6 31  1  0
  6 32  1  0
  6  7  1  0
  7 33  1  0
  7 34  1  0
  7  8  1  0
  8  9  2  0
  8 10  1  0
 10 35  1  0
 10 11  1  0
 11 36  1  1
 11 12  1  0
 12 13  2  0
 12 14  1  0
 11 15  1  0
 15 37  1  6
 15 16  1  0
 16 17  1  0
 17 18  2  0
 17 19  1  0
 17 20  1  0
 15 21  1  0
 21 38  1  0
 21 39  1  0
 21 40  1  0
M  CHG  3  14  -1  19  -1  20  -1
M  END
>  <conformer_energy>  (1) 
68.17

>  <ligand_smiles>  (1) 
C[C@@H](OP(=O)([O-])[O-])[C@H](NC(=O)CCCCCCS)C(=O)[O-]

>  <ligand_conf_name>  (1) 
MOL_0_isomer_0_conf_0

>  <ligand_molecule_name>  (1) 
MOL_0_isomer_0

$$$$
