1PMN - prepared_ligand_conf_0
     RDKit          3D

 64 68  0  0  0  0  0  0  0  0999 V2000
    2.4475    3.3523    0.5501 C   0  0  0  0  0  0  0  0  0  0  0  0
    1.6152    2.3147    0.3613 N   0  0  0  0  0  0  0  0  0  0  0  0
    2.1637    1.1063    0.1653 C   0  0  0  0  0  0  0  0  0  0  0  0
    1.3564   -0.0018   -0.0490 N   0  0  0  0  0  0  0  0  0  0  0  0
   -0.0886    0.0709   -0.0821 C   0  0  0  0  0  0  0  0  0  0  0  0
   -0.9028   -0.1539    1.1606 C   0  0  0  0  0  0  0  0  0  0  0  0
   -0.9203   -1.1736    0.0607 C   0  0  0  0  0  0  0  0  0  0  0  0
    3.4860    0.8838    0.1629 N   0  0  0  0  0  0  0  0  0  0  0  0
    4.2810    1.9505    0.3626 C   0  0  0  0  0  0  0  0  0  0  0  0
    5.7077    1.6545    0.3342 C   0  0  0  0  0  0  0  0  0  0  0  0
    6.7262    2.1594   -0.4595 C   0  0  0  0  0  0  0  0  0  0  0  0
    6.5987    3.1010   -1.5581 C   0  0  0  0  0  0  0  0  0  0  0  0
    7.5236    4.1456   -1.6774 C   0  0  0  0  0  0  0  0  0  0  0  0
    7.4278    5.0614   -2.7286 C   0  0  0  0  0  0  0  0  0  0  0  0
    6.4107    4.9356   -3.6782 C   0  0  0  0  0  0  0  0  0  0  0  0
    6.3505    6.1019   -4.9498 Cl  0  0  0  0  0  0  0  0  0  0  0  0
    5.4919    3.8858   -3.5755 C   0  0  0  0  0  0  0  0  0  0  0  0
    4.2149    3.6589   -4.7166 Cl  0  0  0  0  0  0  0  0  0  0  0  0
    5.5897    2.9699   -2.5215 C   0  0  0  0  0  0  0  0  0  0  0  0
    7.9461    1.6647   -0.0701 N   0  0  0  0  0  0  0  0  0  0  0  0
    7.7035    0.8262    0.9147 C   0  0  0  0  0  0  0  0  0  0  0  0
    8.7742    0.0299    1.6044 C   0  0  2  0  0  0  0  0  0  0  0  0
    9.9838    0.9300    1.9078 C   0  0  0  0  0  0  0  0  0  0  0  0
   11.1524    0.1405    2.4686 C   0  0  0  0  0  0  0  0  0  0  0  0
   11.5143   -0.9630    1.5078 N   0  0  1  0  0  0  0  0  0  0  0  0
   12.7646   -1.6851    1.9295 C   0  0  0  0  0  0  0  0  0  0  0  0
   10.3675   -1.9126    1.2784 C   0  0  0  0  0  0  0  0  0  0  0  0
    9.1835   -1.1497    0.7110 C   0  0  0  0  0  0  0  0  0  0  0  0
    6.3505    0.7703    1.1865 N   0  0  0  0  0  0  0  0  0  0  0  0
    5.7164   -0.0452    2.2119 C   0  0  0  0  0  0  0  0  0  0  0  0
    5.5848    0.6980    3.5386 C   0  0  0  0  0  0  0  0  0  0  0  0
    4.9318   -0.1742    4.5980 C   0  0  0  0  0  0  0  0  0  0  0  0
    3.8111    3.2279    0.5607 C   0  0  0  0  0  0  0  0  0  0  0  0
    1.9642    4.3141    0.6952 H   0  0  0  0  0  0  0  0  0  0  0  0
    1.8796   -0.8436   -0.2328 H   0  0  0  0  0  0  0  0  0  0  0  0
   -0.4566    0.8180   -0.7830 H   0  0  0  0  0  0  0  0  0  0  0  0
   -0.3800   -0.3972    2.0775 H   0  0  0  0  0  0  0  0  0  0  0  0
   -1.7816    0.4645    1.3010 H   0  0  0  0  0  0  0  0  0  0  0  0
   -1.8169   -1.2525   -0.5432 H   0  0  0  0  0  0  0  0  0  0  0  0
   -0.4203   -2.1173    0.2395 H   0  0  0  0  0  0  0  0  0  0  0  0
    8.3251    4.2517   -0.9484 H   0  0  0  0  0  0  0  0  0  0  0  0
    8.1516    5.8699   -2.8030 H   0  0  0  0  0  0  0  0  0  0  0  0
    4.8811    2.1454   -2.4678 H   0  0  0  0  0  0  0  0  0  0  0  0
    8.4087   -0.3609    2.5610 H   0  0  0  0  0  0  0  0  0  0  0  0
    9.6960    1.7123    2.6213 H   0  0  0  0  0  0  0  0  0  0  0  0
   10.3155    1.4496    0.9985 H   0  0  0  0  0  0  0  0  0  0  0  0
   10.9114   -0.3206    3.4329 H   0  0  0  0  0  0  0  0  0  0  0  0
   12.0325    0.7823    2.5810 H   0  0  0  0  0  0  0  0  0  0  0  0
   11.7307   -0.5198    0.6018 H   0  0  0  0  0  0  0  0  0  0  0  0
   13.0077   -2.4203    1.1580 H   0  0  0  0  0  0  0  0  0  0  0  0
   13.5697   -0.9502    2.0097 H   0  0  0  0  0  0  0  0  0  0  0  0
   12.5791   -2.1711    2.8910 H   0  0  0  0  0  0  0  0  0  0  0  0
   10.1276   -2.3849    2.2376 H   0  0  0  0  0  0  0  0  0  0  0  0
   10.7073   -2.6763    0.5711 H   0  0  0  0  0  0  0  0  0  0  0  0
    8.3366   -1.8361    0.5861 H   0  0  0  0  0  0  0  0  0  0  0  0
    9.4391   -0.7917   -0.2959 H   0  0  0  0  0  0  0  0  0  0  0  0
    4.7413   -0.3770    1.8473 H   0  0  0  0  0  0  0  0  0  0  0  0
    6.3111   -0.9571    2.3314 H   0  0  0  0  0  0  0  0  0  0  0  0
    6.5727    1.0172    3.8917 H   0  0  0  0  0  0  0  0  0  0  0  0
    4.9891    1.6087    3.4055 H   0  0  0  0  0  0  0  0  0  0  0  0
    4.8455    0.3749    5.5408 H   0  0  0  0  0  0  0  0  0  0  0  0
    5.5241   -1.0761    4.7830 H   0  0  0  0  0  0  0  0  0  0  0  0
    3.9269   -0.4795    4.2893 H   0  0  0  0  0  0  0  0  0  0  0  0
    4.4597    4.0787    0.7141 H   0  0  0  0  0  0  0  0  0  0  0  0
 34  1  1  0
  1  2  2  0
  2  3  1  0
  3  4  1  0
  4 35  1  0
  4  5  1  0
  5 36  1  0
  5  6  1  0
  6 37  1  0
  6 38  1  0
  5  7  1  0
  6  7  1  0
  7 39  1  0
  7 40  1  0
  3  8  2  0
  8  9  1  0
  9 10  1  0
 10 11  2  0
 11 12  1  0
 12 13  2  0
 13 41  1  0
 13 14  1  0
 14 42  1  0
 14 15  2  0
 15 16  1  0
 15 17  1  0
 17 18  1  0
 12 19  1  0
 17 19  2  0
 19 43  1  0
 11 20  1  0
 20 21  2  0
 21 22  1  0
 22 44  1  1
 22 23  1  0
 23 45  1  0
 23 46  1  0
 23 24  1  0
 24 47  1  0
 24 48  1  0
 24 25  1  0
 25 49  1  6
 25 26  1  0
 26 50  1  0
 26 51  1  0
 26 52  1  0
 25 27  1  0
 27 53  1  0
 27 54  1  0
 22 28  1  0
 27 28  1  0
 28 55  1  0
 28 56  1  0
 10 29  1  0
 21 29  1  0
 29 30  1  0
 30 57  1  0
 30 58  1  0
 30 31  1  0
 31 59  1  0
 31 60  1  0
 31 32  1  0
 32 61  1  0
 32 62  1  0
 32 63  1  0
  1 33  1  0
  9 33  2  0
 33 64  1  0
M  CHG  1  25   1
M  END
>  <conformer_energy>  (1) 
-51.66

>  <ligand_smiles>  (1) 
CCCn1c(-c2ccnc(NC3CC3)n2)c(-c2ccc(Cl)c(Cl)c2)nc1[C@H]1CC[N@H+](C)CC1

>  <ligand_conf_name>  (1) 
1PMN - prepared_ligand_conf_0

>  <ligand_molecule_name>  (1) 
1PMN - prepared_ligand

$$$$
