1K3U - prepared_ligand_conf_0
     RDKit          3D

 33 34  0  0  0  0  0  0  0  0999 V2000
    7.7891   -0.4918    3.1319 C   0  0  0  0  0  0  0  0  0  0  0  0
    7.9570   -1.8588    3.3401 C   0  0  0  0  0  0  0  0  0  0  0  0
    7.0471   -2.7825    2.8177 C   0  0  0  0  0  0  0  0  0  0  0  0
    5.9657   -2.2843    2.0800 C   0  0  0  0  0  0  0  0  0  0  0  0
    5.7687   -0.9205    1.8514 C   0  0  0  0  0  0  0  0  0  0  0  0
    6.7018   -0.0112    2.3926 C   0  0  0  0  0  0  0  0  0  0  0  0
    4.5725   -0.7802    1.0739 C   0  0  0  0  0  0  0  0  0  0  0  0
    3.9473    0.4920    0.5841 C   0  0  0  0  0  0  0  0  0  0  0  0
    2.5307    0.6864    1.1077 C   0  0  0  0  0  0  0  0  0  0  0  0
    2.3089    1.3294    2.1305 O   0  0  0  0  0  0  0  0  0  0  0  0
    1.5892    0.0872    0.3177 N   0  0  0  0  0  0  0  0  0  0  0  0
    0.1219   -0.0308    0.5635 C   0  0  2  0  0  0  0  0  0  0  0  0
   -0.3150   -1.4819    0.1108 C   0  0  0  0  0  0  0  0  0  0  0  0
   -1.2164   -2.0676    0.7697 O   0  0  0  0  0  0  0  0  0  0  0  0
    0.4158   -1.9592   -0.8292 O   0  0  0  0  0  0  0  0  0  0  0  0
   -0.5898    1.0103   -0.2964 C   0  0  0  0  0  0  0  0  0  0  0  0
   -2.0261    1.3538    0.0933 C   0  0  0  0  0  0  0  0  0  0  0  0
   -2.2395    1.6053    1.3134 O   0  0  0  0  0  0  0  0  0  0  0  0
   -2.8273    1.4792   -0.8836 O   0  0  0  0  0  0  0  0  0  0  0  0
    4.0988   -2.0592    0.8469 C   0  0  0  0  0  0  0  0  0  0  0  0
    4.9231   -2.9474    1.4761 N   0  0  0  0  0  0  0  0  0  0  0  0
    8.4985    0.2134    3.5548 H   0  0  0  0  0  0  0  0  0  0  0  0
    8.8011   -2.2137    3.9249 H   0  0  0  0  0  0  0  0  0  0  0  0
    7.1692   -3.8462    2.9902 H   0  0  0  0  0  0  0  0  0  0  0  0
    6.5684    1.0567    2.2476 H   0  0  0  0  0  0  0  0  0  0  0  0
    4.5379    1.3626    0.8899 H   0  0  0  0  0  0  0  0  0  0  0  0
    3.9370    0.4938   -0.5129 H   0  0  0  0  0  0  0  0  0  0  0  0
    1.8621   -0.5380   -0.4379 H   0  0  0  0  0  0  0  0  0  0  0  0
   -0.0626    0.1086    1.6333 H   0  0  0  0  0  0  0  0  0  0  0  0
   -0.5705    0.7025   -1.3505 H   0  0  0  0  0  0  0  0  0  0  0  0
   -0.0403    1.9608   -0.2515 H   0  0  0  0  0  0  0  0  0  0  0  0
    3.2135   -2.4055    0.3218 H   0  0  0  0  0  0  0  0  0  0  0  0
    4.7731   -3.9454    1.5010 H   0  0  0  0  0  0  0  0  0  0  0  0
 22  1  1  0
  1  2  2  0
  2 23  1  0
  2  3  1  0
  3 24  1  0
  3  4  2  0
  4  5  1  0
  1  6  1  0
  5  6  2  0
  6 25  1  0
  5  7  1  0
  7  8  1  0
  8 26  1  0
  8 27  1  0
  8  9  1  0
  9 10  2  0
  9 11  1  0
 11 28  1  0
 11 12  1  0
 12 29  1  1
 12 13  1  0
 13 14  2  0
 13 15  1  0
 12 16  1  0
 16 30  1  0
 16 31  1  0
 16 17  1  0
 17 18  2  0
 17 19  1  0
  7 20  2  0
 20 32  1  0
  4 21  1  0
 20 21  1  0
 21 33  1  0
M  CHG  2  15  -1  19  -1
M  END
>  <conformer_energy>  (1) 
129.21

>  <ligand_smiles>  (1) 
O=C([O-])C[C@H](NC(=O)Cc1c[nH]c2ccccc12)C(=O)[O-]

>  <ligand_conf_name>  (1) 
1K3U - prepared_ligand_conf_0

>  <ligand_molecule_name>  (1) 
1K3U - prepared_ligand

$$$$
