MOL_0_isomer_0_conf_0
     RDKit          3D

 34 36  0  0  0  0  0  0  0  0999 V2000
    0.8557   -7.4017    0.9906 O   0  0  0  0  0  0  0  0  0  0  0  0
   -0.1629   -6.5012    0.5656 C   0  0  0  0  0  0  0  0  0  0  0  0
    0.3739   -5.0991    0.4876 C   0  0  0  0  0  0  0  0  0  0  0  0
    0.9529   -4.6251   -0.6957 C   0  0  0  0  0  0  0  0  0  0  0  0
    1.4498   -3.3209   -0.7682 C   0  0  0  0  0  0  0  0  0  0  0  0
    1.3818   -2.4641    0.3407 C   0  0  0  0  0  0  0  0  0  0  0  0
    1.9423   -1.1052    0.2768 C   0  0  0  0  0  0  0  0  0  0  0  0
    3.3027   -0.9929    0.6364 C   0  0  0  0  0  0  0  0  0  0  0  0
    3.9278    0.2344    0.6021 C   0  0  0  0  0  0  0  0  0  0  0  0
    3.2981    1.3609    0.2449 N   0  0  0  0  0  0  0  0  0  0  0  0
    1.9592    1.2455   -0.1010 C   0  0  0  0  0  0  0  0  0  0  0  0
    1.2947    2.8757   -0.4569 S   0  0  0  0  0  6  0  0  0  0  0  0
    0.3700    3.2920    0.5727 O   0  0  0  0  0  0  0  0  0  0  0  0
    1.1341    3.0630   -1.8829 O   0  0  0  0  0  0  0  0  0  0  0  0
    2.6941    3.8531   -0.1583 N   0  0  0  0  0  0  0  0  0  0  0  0
    1.2347    0.0583   -0.1157 C   0  0  0  0  0  0  0  0  0  0  0  0
   -0.2862    0.0038   -0.5668 C   0  0  0  0  0  0  0  0  0  0  0  0
   -1.0536   -1.1120   -0.5620 N   0  0  0  0  0  0  0  0  0  0  0  0
   -2.2529   -0.7272   -1.0464 N   0  0  0  0  0  0  0  0  0  0  0  0
   -2.2082    0.5854   -1.3337 N   0  0  0  0  0  0  0  0  0  0  0  0
   -0.9803    1.0615   -1.0364 N   0  0  0  0  0  2  0  0  0  0  0  0
    0.8211   -2.9523    1.5305 C   0  0  0  0  0  0  0  0  0  0  0  0
    0.3239   -4.2564    1.6044 C   0  0  0  0  0  0  0  0  0  0  0  0
    1.6621   -6.8755    1.1271 H   0  0  0  0  0  0  0  0  0  0  0  0
   -0.5354   -6.8326   -0.4094 H   0  0  0  0  0  0  0  0  0  0  0  0
   -0.9977   -6.5620    1.2717 H   0  0  0  0  0  0  0  0  0  0  0  0
    0.9951   -5.2569   -1.5796 H   0  0  0  0  0  0  0  0  0  0  0  0
    1.8615   -2.9616   -1.7085 H   0  0  0  0  0  0  0  0  0  0  0  0
    3.8654   -1.8727    0.9383 H   0  0  0  0  0  0  0  0  0  0  0  0
    4.9741    0.3390    0.8725 H   0  0  0  0  0  0  0  0  0  0  0  0
    3.4106    3.2094    0.1997 H   0  0  0  0  0  0  0  0  0  0  0  0
    2.9597    4.2196   -1.0722 H   0  0  0  0  0  0  0  0  0  0  0  0
    0.7389   -2.3030    2.3992 H   0  0  0  0  0  0  0  0  0  0  0  0
   -0.1286   -4.5980    2.5322 H   0  0  0  0  0  0  0  0  0  0  0  0
 24  1  1  0
  1  2  1  0
  2 25  1  0
  2 26  1  0
  2  3  1  0
  3  4  2  0
  4 27  1  0
  4  5  1  0
  5 28  1  0
  5  6  2  0
  6  7  1  0
  7  8  2  0
  8 29  1  0
  8  9  1  0
  9 30  1  0
  9 10  2  0
 10 11  1  0
 11 12  1  0
 12 13  2  0
 12 14  2  0
 12 15  1  0
 15 31  1  0
 15 32  1  0
  7 16  1  0
 11 16  2  0
 16 17  1  0
 17 18  2  0
 18 19  1  0
 19 20  2  0
 17 21  1  0
 20 21  1  0
  6 22  1  0
 22 33  1  0
  3 23  1  0
 22 23  2  0
 23 34  1  0
M  CHG  1  21  -1
M  END
>  <conformer_energy>  (1) 
2.61

>  <ligand_smiles>  (1) 
NS(=O)(=O)c1nccc(-c2ccc(CO)cc2)c1-c1nnn[n-]1

>  <ligand_conf_name>  (1) 
MOL_0_isomer_0_conf_0

>  <ligand_molecule_name>  (1) 
MOL_0_isomer_0

$$$$
