MOL_0_isomer_0_conf_0
     RDKit          3D

 36 37  0  0  0  0  0  0  0  0999 V2000
    2.2088   -2.5082   -0.8502 O   0  0  0  0  0  0  0  0  0  0  0  0
    2.1182   -1.0734   -0.7099 C   0  0  1  0  0  0  0  0  0  0  0  0
    3.1378   -0.4450   -1.6330 C   0  0  1  0  0  0  0  0  0  0  0  0
    4.3250   -1.2414   -1.7357 O   0  0  0  0  0  0  0  0  0  0  0  0
    2.3521   -0.3528   -2.9419 C   0  0  2  0  0  0  0  0  0  0  0  0
    2.8595    0.7053   -3.8310 N   0  0  0  0  0  0  0  0  0  0  0  0
    2.5394    2.0275   -3.5749 C   0  0  0  0  0  0  0  0  0  0  0  0
    3.0048    3.0313   -4.3201 C   0  0  0  0  0  0  0  0  0  0  0  0
    3.8946    2.7174   -5.4454 C   0  0  0  0  0  0  0  0  0  0  0  0
    4.3495    3.6011   -6.1658 O   0  0  0  0  0  0  0  0  0  0  0  0
    4.1736    1.3956   -5.6292 N   0  0  0  0  0  0  0  0  0  0  0  0
    3.6953    0.3488   -4.8760 C   0  0  0  0  0  0  0  0  0  0  0  0
    4.0243   -0.7937   -5.1884 O   0  0  0  0  0  0  0  0  0  0  0  0
    0.9964   -0.0544   -2.5908 O   0  0  0  0  0  0  0  0  0  0  0  0
    0.7694   -0.5728   -1.2367 C   0  0  2  0  0  0  0  0  0  0  0  0
    0.1686    0.5335   -0.3735 C   0  0  0  0  0  0  0  0  0  0  0  0
   -1.2363    0.3429   -0.3125 O   0  0  0  0  0  0  0  0  0  0  0  0
   -1.9107    0.3299    1.1719 P   0  0  2  0  0  5  0  0  0  0  0  0
   -3.4145    0.2346    0.9239 O   0  0  0  0  0  0  0  0  0  0  0  0
   -1.4375    1.5843    1.8896 O   0  0  0  0  0  1  0  0  0  0  0  0
   -1.4004   -1.0364    1.8261 O   0  0  0  0  0  0  0  0  0  0  0  0
   -0.0610   -1.8983    2.0591 P   0  0  0  0  0  5  0  0  0  0  0  0
    1.0572   -0.9382    2.4371 O   0  0  0  0  0  0  0  0  0  0  0  0
    0.2413   -2.6169    0.7405 O   0  0  0  0  0  1  0  0  0  0  0  0
   -0.4086   -2.8843    3.1714 O   0  0  0  0  0  1  0  0  0  0  0  0
    1.4748   -2.7837   -0.1992 H   0  0  0  0  0  0  0  0  0  0  0  0
    2.3384   -0.8413    0.3328 H   0  0  0  0  0  0  0  0  0  0  0  0
    3.4143    0.5500   -1.2665 H   0  0  0  0  0  0  0  0  0  0  0  0
    4.0088   -2.1219   -1.4211 H   0  0  0  0  0  0  0  0  0  0  0  0
    2.3672   -1.3123   -3.4733 H   0  0  0  0  0  0  0  0  0  0  0  0
    1.8778    2.2197   -2.7324 H   0  0  0  0  0  0  0  0  0  0  0  0
    2.7565    4.0656   -4.1312 H   0  0  0  0  0  0  0  0  0  0  0  0
    4.7812    1.1440   -6.3888 H   0  0  0  0  0  0  0  0  0  0  0  0
    0.0555   -1.3927   -1.3680 H   0  0  0  0  0  0  0  0  0  0  0  0
    0.3399    1.5171   -0.8227 H   0  0  0  0  0  0  0  0  0  0  0  0
    0.5970    0.5604    0.6273 H   0  0  0  0  0  0  0  0  0  0  0  0
 26  1  1  0
  1  2  1  0
  2 27  1  1
  2  3  1  0
  3 28  1  1
  3  4  1  0
  4 29  1  0
  3  5  1  0
  5 30  1  6
  5  6  1  0
  6  7  1  0
  7 31  1  0
  7  8  2  0
  8 32  1  0
  8  9  1  0
  9 10  2  0
  9 11  1  0
 11 33  1  0
  6 12  1  0
 11 12  1  0
 12 13  2  0
  5 14  1  0
  2 15  1  0
 14 15  1  0
 15 34  1  6
 15 16  1  0
 16 35  1  0
 16 36  1  0
 16 17  1  0
 17 18  1  0
 18 19  2  0
 18 20  1  1
 18 21  1  0
 21 22  1  0
 22 23  2  0
 22 24  1  0
 22 25  1  0
M  CHG  3  20  -1  24  -1  25  -1
M  END
>  <conformer_energy>  (1) 
-88.55

>  <ligand_smiles>  (1) 
O=c1ccn([C@@H]2O[C@H](CO[P@](=O)([O-])OP(=O)([O-])[O-])[C@@H](O)[C@H]2O)c(=O)[nH]1

>  <ligand_conf_name>  (1) 
MOL_0_isomer_0_conf_0

>  <ligand_molecule_name>  (1) 
MOL_0_isomer_0

$$$$
