MOL_0_isomer_0_conf_0
     RDKit          3D

 39 41  0  0  0  0  0  0  0  0999 V2000
    2.4828    0.8703   -2.4359 O   0  0  0  0  0  0  0  0  0  0  0  0
    1.4353    0.3898   -1.5428 C   0  0  1  0  0  0  0  0  0  0  0  0
    0.2367   -0.0063   -2.3898 C   0  0  1  0  0  0  0  0  0  0  0  0
    0.0044    0.9980   -3.3924 O   0  0  0  0  0  0  0  0  0  0  0  0
    0.7426   -1.3412   -2.9394 C   0  0  2  0  0  0  0  0  0  0  0  0
   -0.2946   -2.2445   -3.3947 N   0  0  0  0  0  0  0  0  0  0  0  0
   -1.1761   -2.9618   -2.6249 C   0  0  0  0  0  0  0  0  0  0  0  0
   -1.9823   -3.7076   -3.3611 N   0  0  0  0  0  0  0  0  0  0  0  0
   -1.6331   -3.4194   -4.6595 C   0  0  0  0  0  0  0  0  0  0  0  0
   -2.1461   -3.8610   -5.8898 C   0  0  0  0  0  0  0  0  0  0  0  0
   -3.1979   -4.7500   -5.9851 N   0  0  0  0  0  0  0  0  0  0  0  0
   -1.5965   -3.3855   -7.0302 N   0  0  0  0  0  0  0  0  0  0  0  0
   -0.5708   -2.5095   -6.9200 C   0  0  0  0  0  0  0  0  0  0  0  0
    0.0122   -2.0270   -5.8082 N   0  0  0  0  0  0  0  0  0  0  0  0
   -0.5808   -2.5186   -4.7058 C   0  0  0  0  0  0  0  0  0  0  0  0
    1.5323   -1.9760   -1.8980 O   0  0  0  0  0  0  0  0  0  0  0  0
    1.8656   -0.9395   -0.9247 C   0  0  2  0  0  0  0  0  0  0  0  0
    1.1989   -1.2599    0.4194 C   0  0  0  0  0  0  0  0  0  0  0  0
   -0.2026   -1.4310    0.2819 O   0  0  0  0  0  0  0  0  0  0  0  0
   -1.1843   -0.3286    1.0209 P   0  0  2  0  0  5  0  0  0  0  0  0
   -2.5627   -0.8569    0.6875 O   0  0  0  0  0  0  0  0  0  0  0  0
   -0.6970    0.9811    0.4375 O   0  0  0  0  0  1  0  0  0  0  0  0
   -0.7355   -0.6687    2.5159 O   0  0  0  0  0  0  0  0  0  0  0  0
   -0.9621    0.5261    3.5631 S   0  0  0  0  0  6  0  0  0  0  0  0
   -2.2415    1.1596    3.2750 O   0  0  0  0  0  0  0  0  0  0  0  0
   -0.9640   -0.1780    4.8506 O   0  0  0  0  0  0  0  0  0  0  0  0
    0.2154    1.3832    3.4218 O   0  0  0  0  0  1  0  0  0  0  0  0
    1.9714    1.2577   -3.2040 H   0  0  0  0  0  0  0  0  0  0  0  0
    1.2646    1.2016   -0.8369 H   0  0  0  0  0  0  0  0  0  0  0  0
   -0.6845   -0.1410   -1.8146 H   0  0  0  0  0  0  0  0  0  0  0  0
   -0.4854    1.6888   -2.8947 H   0  0  0  0  0  0  0  0  0  0  0  0
    1.4229   -1.1755   -3.7889 H   0  0  0  0  0  0  0  0  0  0  0  0
   -1.1886   -2.8983   -1.5421 H   0  0  0  0  0  0  0  0  0  0  0  0
   -3.5744   -4.9609   -6.8965 H   0  0  0  0  0  0  0  0  0  0  0  0
   -3.6352   -5.0423   -5.1218 H   0  0  0  0  0  0  0  0  0  0  0  0
   -0.1603   -2.1464   -7.8566 H   0  0  0  0  0  0  0  0  0  0  0  0
    2.9552   -0.9697   -0.7952 H   0  0  0  0  0  0  0  0  0  0  0  0
    1.4434   -0.4893    1.1592 H   0  0  0  0  0  0  0  0  0  0  0  0
    1.5907   -2.2132    0.7933 H   0  0  0  0  0  0  0  0  0  0  0  0
 28  1  1  0
  1  2  1  0
  2 29  1  1
  2  3  1  0
  3 30  1  1
  3  4  1  0
  4 31  1  0
  3  5  1  0
  5 32  1  6
  5  6  1  0
  6  7  1  0
  7 33  1  0
  7  8  2  0
  8  9  1  0
  9 10  1  0
 10 11  1  0
 11 34  1  0
 11 35  1  0
 10 12  2  0
 12 13  1  0
 13 36  1  0
 13 14  2  0
  9 15  2  0
  6 15  1  0
 14 15  1  0
  5 16  1  0
  2 17  1  0
 16 17  1  0
 17 37  1  1
 17 18  1  0
 18 38  1  0
 18 39  1  0
 18 19  1  0
 19 20  1  0
 20 21  2  0
 20 22  1  6
 20 23  1  0
 23 24  1  0
 24 25  2  0
 24 26  2  0
 24 27  1  0
M  CHG  2  22  -1  27  -1
M  END
>  <conformer_energy>  (1) 
-38.51

>  <ligand_smiles>  (1) 
Nc1ncnc2c1ncn2[C@@H]1O[C@H](CO[P@](=O)([O-])OS(=O)(=O)[O-])[C@@H](O)[C@H]1O

>  <ligand_conf_name>  (1) 
MOL_0_isomer_0_conf_0

>  <ligand_molecule_name>  (1) 
MOL_0_isomer_0

$$$$
