MOL_0_isomer_0_conf_0
     RDKit          3D

 38 38  0  0  0  0  0  0  0  0999 V2000
    4.9759   -3.4320    0.2416 C   0  0  0  0  0  0  0  0  0  0  0  0
    4.0038   -2.6748    0.6346 N   0  0  0  0  0  0  0  0  0  0  0  0
    3.4613   -1.8280   -0.4248 C   0  0  0  0  0  0  0  0  0  0  0  0
    2.4665   -0.8590    0.2150 C   0  0  0  0  0  0  0  0  0  0  0  0
    2.0099    0.1900   -0.7914 C   0  0  0  0  0  0  0  0  0  0  0  0
    0.6866    1.2855   -0.1637 S   0  0  0  0  0  0  0  0  0  0  0  0
    1.5251    1.9712    1.2908 C   0  0  0  0  0  0  0  0  0  0  0  0
    5.7355   -4.3419    1.1476 C   0  0  0  0  0  0  0  0  0  0  0  0
    6.4294   -5.4447    0.5320 C   0  0  0  0  0  0  0  0  0  0  0  0
    6.3599   -5.7382   -0.7147 O   0  0  0  0  0  1  0  0  0  0  0  0
    7.2303   -6.2012    1.4175 C   0  0  0  0  0  0  0  0  0  0  0  0
    8.0844   -7.3450    0.9545 C   0  0  0  0  0  0  0  0  0  0  0  0
    7.2614   -5.9225    2.7236 N   0  0  0  0  0  4  0  0  0  0  0  0
    6.5589   -4.9502    3.2866 C   0  0  0  0  0  0  0  0  0  0  0  0
    5.7996   -4.0809    2.5317 C   0  0  0  0  0  0  0  0  0  0  0  0
    5.2405   -2.8646    3.2410 C   0  0  0  0  0  0  0  0  0  0  0  0
    5.3196   -3.0229    4.6506 O   0  0  0  0  0  0  0  0  0  0  0  0
    6.6329   -2.4087    5.4168 P   0  0  0  0  0  5  0  0  0  0  0  0
    6.5685   -3.1048    6.7656 O   0  0  0  0  0  0  0  0  0  0  0  0
    6.3918   -0.9136    5.4157 O   0  0  0  0  0  1  0  0  0  0  0  0
    7.8138   -2.8790    4.5736 O   0  0  0  0  0  1  0  0  0  0  0  0
    5.2835   -3.4337   -0.8200 H   0  0  0  0  0  0  0  0  0  0  0  0
    4.2645   -1.2620   -0.9131 H   0  0  0  0  0  0  0  0  0  0  0  0
    2.9525   -2.4373   -1.1812 H   0  0  0  0  0  0  0  0  0  0  0  0
    2.9482   -0.3781    1.0744 H   0  0  0  0  0  0  0  0  0  0  0  0
    1.6101   -1.4252    0.6018 H   0  0  0  0  0  0  0  0  0  0  0  0
    1.6166   -0.3001   -1.6887 H   0  0  0  0  0  0  0  0  0  0  0  0
    2.8523    0.8143   -1.1082 H   0  0  0  0  0  0  0  0  0  0  0  0
    0.9355    2.8075    1.6763 H   0  0  0  0  0  0  0  0  0  0  0  0
    2.5179    2.3430    1.0246 H   0  0  0  0  0  0  0  0  0  0  0  0
    1.6042    1.2209    2.0808 H   0  0  0  0  0  0  0  0  0  0  0  0
    8.6427   -7.7821    1.7891 H   0  0  0  0  0  0  0  0  0  0  0  0
    8.8142   -7.0053    0.2126 H   0  0  0  0  0  0  0  0  0  0  0  0
    7.4639   -8.1366    0.5223 H   0  0  0  0  0  0  0  0  0  0  0  0
    7.8854   -6.4223    3.3452 H   0  0  0  0  0  0  0  0  0  0  0  0
    6.6928   -4.8691    4.3598 H   0  0  0  0  0  0  0  0  0  0  0  0
    4.1751   -2.7611    3.0261 H   0  0  0  0  0  0  0  0  0  0  0  0
    5.7635   -1.9571    2.9213 H   0  0  0  0  0  0  0  0  0  0  0  0
 22  1  1  0
  1  2  2  0
  2  3  1  0
  3 23  1  0
  3 24  1  0
  3  4  1  0
  4 25  1  0
  4 26  1  0
  4  5  1  0
  5 27  1  0
  5 28  1  0
  5  6  1  0
  6  7  1  0
  7 29  1  0
  7 30  1  0
  7 31  1  0
  1  8  1  0
  8  9  2  0
  9 10  1  0
  9 11  1  0
 11 12  1  0
 12 32  1  0
 12 33  1  0
 12 34  1  0
 11 13  2  0
 13 35  1  0
 13 14  1  0
 14 36  1  0
  8 15  1  0
 14 15  2  0
 15 16  1  0
 16 37  1  0
 16 38  1  0
 16 17  1  0
 17 18  1  0
 18 19  2  0
 18 20  1  0
 18 21  1  0
M  CHG  4  10  -1  13   1  20  -1  21  -1
M  END
>  <conformer_energy>  (1) 
-103.83

>  <ligand_smiles>  (1) 
CSCCC/N=C/c1c(COP(=O)([O-])[O-])c[nH+]c(C)c1[O-]

>  <ligand_conf_name>  (1) 
MOL_0_isomer_0_conf_0

>  <ligand_molecule_name>  (1) 
MOL_0_isomer_0

$$$$
