MOL_0_isomer_0_conf_0
     RDKit          3D

 51 53  0  0  0  0  0  0  0  0999 V2000
    9.0550   -1.8147    0.2013 C   0  0  0  0  0  0  0  0  0  0  0  0
    8.1108   -0.9132   -0.1366 N   0  0  0  0  0  0  0  0  0  0  0  0
    6.9252   -1.0282    0.4715 C   0  0  0  0  0  0  0  0  0  0  0  0
    5.9832   -0.1044    0.1138 N   0  0  0  0  0  0  0  0  0  0  0  0
    4.6092   -0.1796    0.5593 C   0  0  0  0  0  0  0  0  0  0  0  0
    3.8086   -1.1276   -0.3362 C   0  0  0  0  0  0  0  0  0  0  0  0
    2.3436   -1.1506    0.0825 C   0  0  0  0  0  0  0  0  0  0  0  0
    1.7977    0.2276    0.0544 N   0  0  0  0  0  0  0  0  0  0  0  0
    0.1084    0.3858   -0.0165 S   0  0  0  0  0  6  0  0  0  0  0  0
   -0.2049    1.7955   -0.1100 O   0  0  0  0  0  0  0  0  0  0  0  0
   -0.3898   -0.5585   -0.9929 O   0  0  0  0  0  0  0  0  0  0  0  0
   -0.4020   -0.1786    1.5958 C   0  0  0  0  0  0  0  0  0  0  0  0
    2.5251    1.1692    0.9370 C   0  0  0  0  0  0  0  0  0  0  0  0
    3.9912    1.2212    0.5235 C   0  0  0  0  0  0  0  0  0  0  0  0
    6.6368   -1.9771    1.3734 N   0  0  0  0  0  0  0  0  0  0  0  0
    7.5966   -2.8687    1.6855 C   0  0  0  0  0  0  0  0  0  0  0  0
    7.2545   -3.7822    2.6647 N   0  0  0  0  0  0  0  0  0  0  0  0
    8.8606   -2.8183    1.1235 C   0  0  0  0  0  0  0  0  0  0  0  0
    9.9141   -3.8054    1.4510 C   0  0  0  0  0  0  0  0  0  0  0  0
    9.6157   -4.9274    1.8541 O   0  0  0  0  0  0  0  0  0  0  0  0
   11.3434   -3.4749    1.2931 C   0  0  0  0  0  0  0  0  0  0  0  0
   12.1171   -4.2928    0.4704 C   0  0  0  0  0  0  0  0  0  0  0  0
   11.5620   -5.3062   -0.2104 F   0  0  0  0  0  0  0  0  0  0  0  0
   13.4711   -4.0323    0.3162 C   0  0  0  0  0  0  0  0  0  0  0  0
   14.2190   -4.8020   -0.4854 F   0  0  0  0  0  0  0  0  0  0  0  0
   14.0653   -2.9638    0.9780 C   0  0  0  0  0  0  0  0  0  0  0  0
   13.2947   -2.1421    1.8073 C   0  0  0  0  0  0  0  0  0  0  0  0
   11.9270   -2.3918    1.9767 C   0  0  0  0  0  0  0  0  0  0  0  0
   11.0963   -1.6511    2.7723 O   0  0  0  0  0  0  0  0  0  0  0  0
   11.6698   -0.5970    3.5370 C   0  0  0  0  0  0  0  0  0  0  0  0
    9.9922   -1.6890   -0.3308 H   0  0  0  0  0  0  0  0  0  0  0  0
    6.2655    0.5070   -0.6379 H   0  0  0  0  0  0  0  0  0  0  0  0
    4.5646   -0.5309    1.5992 H   0  0  0  0  0  0  0  0  0  0  0  0
    4.2175   -2.1436   -0.2849 H   0  0  0  0  0  0  0  0  0  0  0  0
    3.8885   -0.8094   -1.3843 H   0  0  0  0  0  0  0  0  0  0  0  0
    1.7973   -1.7958   -0.6125 H   0  0  0  0  0  0  0  0  0  0  0  0
    2.2431   -1.5705    1.0897 H   0  0  0  0  0  0  0  0  0  0  0  0
   -1.4914   -0.1081    1.6418 H   0  0  0  0  0  0  0  0  0  0  0  0
    0.0374    0.4641    2.3598 H   0  0  0  0  0  0  0  0  0  0  0  0
   -0.0982   -1.2179    1.7282 H   0  0  0  0  0  0  0  0  0  0  0  0
    2.4347    0.8480    1.9807 H   0  0  0  0  0  0  0  0  0  0  0  0
    2.1086    2.1777    0.8529 H   0  0  0  0  0  0  0  0  0  0  0  0
    4.0749    1.6448   -0.4864 H   0  0  0  0  0  0  0  0  0  0  0  0
    4.5402    1.8939    1.1936 H   0  0  0  0  0  0  0  0  0  0  0  0
    7.7621   -4.6653    2.6690 H   0  0  0  0  0  0  0  0  0  0  0  0
    6.2998   -3.7538    2.9877 H   0  0  0  0  0  0  0  0  0  0  0  0
   15.1271   -2.7758    0.8437 H   0  0  0  0  0  0  0  0  0  0  0  0
   13.7948   -1.3184    2.3087 H   0  0  0  0  0  0  0  0  0  0  0  0
   10.8712   -0.1438    4.1321 H   0  0  0  0  0  0  0  0  0  0  0  0
   12.0826    0.1801    2.8856 H   0  0  0  0  0  0  0  0  0  0  0  0
   12.4274   -0.9783    4.2294 H   0  0  0  0  0  0  0  0  0  0  0  0
 31  1  1  0
  1  2  2  0
  2  3  1  0
  3  4  1  0
  4 32  1  0
  4  5  1  0
  5 33  1  0
  5  6  1  0
  6 34  1  0
  6 35  1  0
  6  7  1  0
  7 36  1  0
  7 37  1  0
  7  8  1  0
  8  9  1  0
  9 10  2  0
  9 11  2  0
  9 12  1  0
 12 38  1  0
 12 39  1  0
 12 40  1  0
  8 13  1  0
 13 41  1  0
 13 42  1  0
  5 14  1  0
 13 14  1  0
 14 43  1  0
 14 44  1  0
  3 15  2  0
 15 16  1  0
 16 17  1  0
 17 45  1  0
 17 46  1  0
  1 18  1  0
 16 18  2  0
 18 19  1  0
 19 20  2  0
 19 21  1  0
 21 22  2  0
 22 23  1  0
 22 24  1  0
 24 25  1  0
 24 26  2  0
 26 47  1  0
 26 27  1  0
 27 48  1  0
 21 28  1  0
 27 28  2  0
 28 29  1  0
 29 30  1  0
 30 49  1  0
 30 50  1  0
 30 51  1  0
M  END
>  <conformer_energy>  (1) 
-115.90

>  <ligand_smiles>  (1) 
COc1ccc(F)c(F)c1C(=O)c1cnc(NC2CCN(S(C)(=O)=O)CC2)nc1N

>  <ligand_conf_name>  (1) 
MOL_0_isomer_0_conf_0

>  <ligand_molecule_name>  (1) 
MOL_0_isomer_0

$$$$
