MOL_0_isomer_0_conf_0
     RDKit          3D

 46 49  0  0  0  0  0  0  0  0999 V2000
    8.2268   -1.3263    2.4488 C   0  0  0  0  0  0  0  0  0  0  0  0
    7.4318   -1.6356    1.4230 N   0  0  0  0  0  0  0  0  0  0  0  0
    6.1108   -1.4672    1.6483 C   0  0  0  0  0  0  0  0  0  0  0  0
    5.5332   -1.0204    2.8336 C   0  0  0  0  0  0  0  0  0  0  0  0
    4.1633   -0.8376    2.9624 N   0  0  0  0  0  0  0  0  0  0  0  0
    3.2076   -1.7661    2.3653 C   0  0  0  0  0  0  0  0  0  0  0  0
    2.5031   -1.1152    1.1783 C   0  0  0  0  0  0  0  0  0  0  0  0
    1.8865    0.2333    1.5768 C   0  0  0  0  0  0  0  0  0  0  0  0
    1.2474    0.8913    0.3607 C   0  0  0  0  0  0  0  0  0  0  0  0
    1.8055    1.7816   -0.2774 O   0  0  0  0  0  0  0  0  0  0  0  0
    0.0182    0.4214    0.0059 N   0  0  0  0  0  0  0  0  0  0  0  0
   -0.9014   -0.5571    0.5377 C   0  0  0  0  0  0  0  0  0  0  0  0
   -1.9707    0.0716   -0.3759 C   0  0  0  0  0  0  0  0  0  0  0  0
   -2.7026   -0.7949   -1.1153 F   0  0  0  0  0  0  0  0  0  0  0  0
   -0.8303    0.7998   -1.1071 C   0  0  0  0  0  0  0  0  0  0  0  0
    2.9606    1.1440    2.1902 C   0  0  0  0  0  0  0  0  0  0  0  0
    3.6466    0.4694    3.3767 C   0  0  0  0  0  0  0  0  0  0  0  0
    6.4830   -0.7664    3.8387 C   0  0  0  0  0  0  0  0  0  0  0  0
    6.1393   -0.3974    5.2314 C   0  0  0  0  0  0  0  0  0  0  0  0
    6.7904    0.6782    5.8674 C   0  0  0  0  0  0  0  0  0  0  0  0
    6.4815    1.0348    7.1826 C   0  0  0  0  0  0  0  0  0  0  0  0
    5.5234    0.3113    7.8792 C   0  0  0  0  0  0  0  0  0  0  0  0
    5.2244    0.6521    9.1395 F   0  0  0  0  0  0  0  0  0  0  0  0
    4.8729   -0.7638    7.2887 C   0  0  0  0  0  0  0  0  0  0  0  0
    5.1835   -1.1184    5.9732 C   0  0  0  0  0  0  0  0  0  0  0  0
    7.8249   -0.8958    3.6486 N   0  0  0  0  0  0  0  0  0  0  0  0
    9.2947   -1.4374    2.2978 H   0  0  0  0  0  0  0  0  0  0  0  0
    5.4963   -1.6914    0.7814 H   0  0  0  0  0  0  0  0  0  0  0  0
    3.6780   -2.7089    2.0621 H   0  0  0  0  0  0  0  0  0  0  0  0
    2.4622   -2.0316    3.1258 H   0  0  0  0  0  0  0  0  0  0  0  0
    1.7346   -1.7967    0.7979 H   0  0  0  0  0  0  0  0  0  0  0  0
    3.2144   -0.9646    0.3562 H   0  0  0  0  0  0  0  0  0  0  0  0
    1.1080    0.0687    2.3324 H   0  0  0  0  0  0  0  0  0  0  0  0
   -0.6281   -1.5854    0.2870 H   0  0  0  0  0  0  0  0  0  0  0  0
   -1.1013   -0.4629    1.6073 H   0  0  0  0  0  0  0  0  0  0  0  0
   -2.6203    0.7688    0.1703 H   0  0  0  0  0  0  0  0  0  0  0  0
   -0.9663    1.8776   -1.2227 H   0  0  0  0  0  0  0  0  0  0  0  0
   -0.5159    0.3479   -2.0518 H   0  0  0  0  0  0  0  0  0  0  0  0
    3.7162    1.3977    1.4347 H   0  0  0  0  0  0  0  0  0  0  0  0
    2.5103    2.0901    2.5141 H   0  0  0  0  0  0  0  0  0  0  0  0
    2.9255    0.3276    4.1907 H   0  0  0  0  0  0  0  0  0  0  0  0
    4.4283    1.1389    3.7508 H   0  0  0  0  0  0  0  0  0  0  0  0
    7.5502    1.2425    5.3286 H   0  0  0  0  0  0  0  0  0  0  0  0
    6.9868    1.8657    7.6640 H   0  0  0  0  0  0  0  0  0  0  0  0
    4.1348   -1.3230    7.8540 H   0  0  0  0  0  0  0  0  0  0  0  0
    4.6772   -1.9701    5.5229 H   0  0  0  0  0  0  0  0  0  0  0  0
 27  1  1  0
  1  2  2  0
  2  3  1  0
  3 28  1  0
  3  4  2  0
  4  5  1  0
  5  6  1  0
  6 29  1  0
  6 30  1  0
  6  7  1  0
  7 31  1  0
  7 32  1  0
  7  8  1  0
  8 33  1  0
  8  9  1  0
  9 10  2  0
  9 11  1  0
 11 12  1  0
 12 34  1  0
 12 35  1  0
 12 13  1  0
 13 36  1  0
 13 14  1  0
 11 15  1  0
 13 15  1  0
 15 37  1  0
 15 38  1  0
  8 16  1  0
 16 39  1  0
 16 40  1  0
  5 17  1  0
 16 17  1  0
 17 41  1  0
 17 42  1  0
  4 18  1  0
 18 19  1  0
 19 20  2  0
 20 43  1  0
 20 21  1  0
 21 44  1  0
 21 22  2  0
 22 23  1  0
 22 24  1  0
 24 45  1  0
 19 25  1  0
 24 25  2  0
 25 46  1  0
  1 26  1  0
 18 26  2  0
M  END
>  <conformer_energy>  (1) 
72.84

>  <ligand_smiles>  (1) 
O=C(C1CCN(c2cncnc2-c2ccc(F)cc2)CC1)N1CC(F)C1

>  <ligand_conf_name>  (1) 
MOL_0_isomer_0_conf_0

>  <ligand_molecule_name>  (1) 
MOL_0_isomer_0

$$$$
