MOL_0_isomer_0_conf_0
     RDKit          3D

 26 26  0  0  0  0  0  0  0  0999 V2000
    4.7425    0.5390    0.7044 O   0  0  0  0  0  0  0  0  0  0  0  0
    3.5077    0.8584    1.3771 C   0  0  2  0  0  0  0  0  0  0  0  0
    2.9505   -0.4057    2.0408 C   0  0  2  0  0  0  0  0  0  0  0  0
    3.9074   -1.1148    2.8259 O   0  0  0  0  0  0  0  0  0  0  0  0
    2.5667   -1.2622    0.8159 C   0  0  2  0  0  0  0  0  0  0  0  0
    3.8408   -1.9483    0.3805 N   0  0  0  0  0  4  0  0  0  0  0  0
    2.1037   -0.2505   -0.2388 C   0  0  1  0  0  0  0  0  0  0  0  0
    0.3598   -0.4080   -0.7243 S   0  0  0  0  0  4  0  0  0  0  0  0
    0.0366    0.8423   -1.4845 O   0  0  0  0  0  0  0  0  0  0  0  0
   -0.4686   -0.2991    0.8784 C   0  0  0  0  0  0  0  0  0  0  0  0
    2.4382    1.1474    0.3195 C   0  0  2  0  0  0  0  0  0  0  0  0
    2.9803    1.9919   -0.6873 O   0  0  0  0  0  0  0  0  0  0  0  0
    4.9533    1.3511    0.1845 H   0  0  0  0  0  0  0  0  0  0  0  0
    3.6945    1.6809    2.0724 H   0  0  0  0  0  0  0  0  0  0  0  0
    2.0711   -0.1803    2.6539 H   0  0  0  0  0  0  0  0  0  0  0  0
    4.2983   -0.4867    3.4678 H   0  0  0  0  0  0  0  0  0  0  0  0
    1.8718   -2.0705    1.0554 H   0  0  0  0  0  0  0  0  0  0  0  0
    4.2262   -2.4427    1.2034 H   0  0  0  0  0  0  0  0  0  0  0  0
    3.7679   -2.5920   -0.4133 H   0  0  0  0  0  0  0  0  0  0  0  0
    4.5644   -1.2244    0.1857 H   0  0  0  0  0  0  0  0  0  0  0  0
    2.6458   -0.4100   -1.1800 H   0  0  0  0  0  0  0  0  0  0  0  0
   -0.2280    0.6364    1.3844 H   0  0  0  0  0  0  0  0  0  0  0  0
   -0.1912   -1.1483    1.5050 H   0  0  0  0  0  0  0  0  0  0  0  0
   -1.5473   -0.3342    0.7041 H   0  0  0  0  0  0  0  0  0  0  0  0
    1.5870    1.6554    0.7816 H   0  0  0  0  0  0  0  0  0  0  0  0
    2.2451    2.2297   -1.2942 H   0  0  0  0  0  0  0  0  0  0  0  0
 13  1  1  0
  1  2  1  0
  2 14  1  1
  2  3  1  0
  3 15  1  1
  3  4  1  0
  4 16  1  0
  3  5  1  0
  5 17  1  1
  5  6  1  0
  6 18  1  0
  6 19  1  0
  6 20  1  0
  5  7  1  0
  7 21  1  6
  7  8  1  0
  8  9  2  0
  8 10  1  1
 10 22  1  0
 10 23  1  0
 10 24  1  0
  2 11  1  0
  7 11  1  0
 11 25  1  1
 11 12  1  0
 12 26  1  0
M  CHG  1   6   1
M  END
>  <conformer_energy>  (1) 
70.95

>  <ligand_smiles>  (1) 
C[S@@](=O)[C@@H]1[C@@H]([NH3+])[C@@H](O)[C@@H](O)[C@H]1O

>  <ligand_conf_name>  (1) 
MOL_0_isomer_0_conf_0

>  <ligand_molecule_name>  (1) 
MOL_0_isomer_0

$$$$
