MOL_0_isomer_0_conf_0
     RDKit          3D

 25 25  0  0  0  0  0  0  0  0999 V2000
    2.2626    3.3433    1.2349 O   0  0  0  0  0  0  0  0  0  0  0  0
    2.1743    2.4773    2.3383 N   0  0  0  0  0  0  0  0  0  0  0  0
    2.1230    1.2355    1.9471 C   0  0  0  0  0  0  0  0  0  0  0  0
    2.2087    0.8637    0.6298 N   0  0  0  0  0  0  0  0  0  0  0  0
    1.8167   -0.4301    0.0881 C   0  0  2  0  0  0  0  0  0  0  0  0
    0.4005   -0.3014   -0.5041 C   0  0  0  0  0  0  0  0  0  0  0  0
   -0.4969    0.3145    0.4239 O   0  0  0  0  0  0  0  0  0  0  0  0
    1.9264   -1.5470    1.1509 C   0  0  1  0  0  0  0  0  0  0  0  0
    3.3077   -1.9472    1.2452 O   0  0  0  0  0  0  0  0  0  0  0  0
    1.3994   -1.1366    2.5409 C   0  0  2  0  0  0  0  0  0  0  0  0
   -0.0261   -1.0809    2.6106 O   0  0  0  0  0  0  0  0  0  0  0  0
    2.0521    0.1597    3.0357 C   0  0  1  0  0  0  0  0  0  0  0  0
    3.4244   -0.1042    3.3800 O   0  0  0  0  0  0  0  0  0  0  0  0
    2.3242    4.2176    1.6650 H   0  0  0  0  0  0  0  0  0  0  0  0
    2.3918    1.6262   -0.0161 H   0  0  0  0  0  0  0  0  0  0  0  0
    2.5012   -0.6728   -0.7341 H   0  0  0  0  0  0  0  0  0  0  0  0
   -0.0040   -1.2799   -0.7806 H   0  0  0  0  0  0  0  0  0  0  0  0
    0.4177    0.3215   -1.4055 H   0  0  0  0  0  0  0  0  0  0  0  0
   -0.1930    1.2416    0.5126 H   0  0  0  0  0  0  0  0  0  0  0  0
    1.3790   -2.4286    0.7983 H   0  0  0  0  0  0  0  0  0  0  0  0
    3.7418   -1.3440    1.8869 H   0  0  0  0  0  0  0  0  0  0  0  0
    1.6928   -1.9298    3.2408 H   0  0  0  0  0  0  0  0  0  0  0  0
   -0.3666   -0.5153    1.8848 H   0  0  0  0  0  0  0  0  0  0  0  0
    1.5347    0.5528    3.9175 H   0  0  0  0  0  0  0  0  0  0  0  0
    3.7714    0.7433    3.7208 H   0  0  0  0  0  0  0  0  0  0  0  0
 14  1  1  0
  1  2  1  0
  2  3  2  0
  3  4  1  0
  4 15  1  0
  4  5  1  0
  5 16  1  6
  5  6  1  0
  6 17  1  0
  6 18  1  0
  6  7  1  0
  7 19  1  0
  5  8  1  0
  8 20  1  6
  8  9  1  0
  9 21  1  0
  8 10  1  0
 10 22  1  1
 10 11  1  0
 11 23  1  0
  3 12  1  0
 10 12  1  0
 12 24  1  1
 12 13  1  0
 13 25  1  0
M  END
>  <conformer_energy>  (1) 
99.20

>  <ligand_smiles>  (1) 
OC[C@H]1N/C(=N\O)[C@H](O)[C@@H](O)[C@@H]1O

>  <ligand_conf_name>  (1) 
MOL_0_isomer_0_conf_0

>  <ligand_molecule_name>  (1) 
MOL_0_isomer_0

$$$$
