MOL_0_isomer_0_conf_0
     RDKit          3D

 79 82  0  0  0  0  0  0  0  0999 V2000
    7.6638    0.1429    4.4801 O   0  0  0  0  0  0  0  0  0  0  0  0
    7.4136    0.3907    3.0845 C   0  0  1  0  0  0  0  0  0  0  0  0
    8.6126    0.0222    2.1694 C   0  0  1  0  0  0  0  0  0  0  0  0
    9.1426   -1.2598    2.4590 O   0  0  0  0  0  0  0  0  0  0  0  0
   10.5356   -1.2559    3.3149 P   0  0  2  0  0  5  0  0  0  0  0  0
   10.8697   -2.6980    3.6075 O   0  0  0  0  0  0  0  0  0  0  0  0
   10.2546   -0.2806    4.4388 O   0  0  0  0  0  1  0  0  0  0  0  0
   11.4821   -0.6332    2.1987 O   0  0  0  0  0  0  0  0  0  0  0  0
   13.0130   -0.2169    2.0966 P   0  0  2  0  0  5  0  0  0  0  0  0
   13.9197   -1.3752    1.7520 O   0  0  0  0  0  0  0  0  0  0  0  0
   13.4424    0.8073    3.1228 O   0  0  0  0  0  1  0  0  0  0  0  0
   12.9037    0.6245    0.6898 O   0  0  0  0  0  0  0  0  0  0  0  0
   12.1765    1.8412    0.7267 C   0  0  0  0  0  0  0  0  0  0  0  0
   12.2709    2.4813   -0.6506 C   0  0  1  0  0  0  0  0  0  0  0  0
   11.7595    3.8294   -0.6563 O   0  0  0  0  0  0  0  0  0  0  0  0
   12.5300    4.5754   -1.6251 C   0  0  1  0  0  0  0  0  0  0  0  0
   13.0838    5.7876   -0.9984 N   0  0  0  0  0  0  0  0  0  0  0  0
   13.3192    5.8481    0.3647 C   0  0  0  0  0  0  0  0  0  0  0  0
   13.8474    6.9285    0.9473 C   0  0  0  0  0  0  0  0  0  0  0  0
   14.1932    8.0872    0.1119 C   0  0  0  0  0  0  0  0  0  0  0  0
   14.7082    9.0919    0.5846 O   0  0  0  0  0  0  0  0  0  0  0  0
   13.9233    7.9564   -1.2183 N   0  0  0  0  0  0  0  0  0  0  0  0
   13.3990    6.8488   -1.8335 C   0  0  0  0  0  0  0  0  0  0  0  0
   13.2606    6.8578   -3.0533 O   0  0  0  0  0  0  0  0  0  0  0  0
   13.6192    3.6436   -2.1974 C   0  0  2  0  0  0  0  0  0  0  0  0
   13.2106    3.0413   -3.4461 O   0  0  0  0  0  0  0  0  0  0  0  0
   13.7180    2.5790   -1.1241 C   0  0  2  0  0  0  0  0  0  0  0  0
   14.2396    1.3658   -1.6655 O   0  0  0  0  0  0  0  0  0  0  0  0
    8.2833    0.1419    0.7795 O   0  0  0  0  0  0  0  0  0  0  0  0
    7.1613   -0.6739    0.3962 C   0  0  2  0  0  0  0  0  0  0  0  0
    7.1024   -0.5997   -1.1291 C   0  0  0  0  0  0  0  0  0  0  0  0
    5.9011   -0.1269    1.0938 C   0  0  1  0  0  0  0  0  0  0  0  0
    4.6485   -0.8354    0.6961 N   0  0  0  0  0  0  0  0  0  0  0  0
    4.0698   -0.3157   -0.3464 C   0  0  0  0  0  0  0  0  0  0  0  0
    2.9197   -0.9535   -1.0387 C   0  0  0  0  0  0  0  0  0  0  0  0
    2.8303   -0.8240   -2.4682 C   0  0  0  0  0  0  0  0  0  0  0  0
    3.6995   -0.2330   -3.2090 O   0  0  0  0  0  1  0  0  0  0  0  0
    1.6154   -1.3311   -2.9862 C   0  0  0  0  0  0  0  0  0  0  0  0
    1.1272   -1.0309   -4.3660 C   0  0  0  0  0  0  0  0  0  0  0  0
    0.8382   -2.1132   -2.2242 N   0  0  0  0  0  4  0  0  0  0  0  0
    1.1983   -2.5607   -1.0224 C   0  0  0  0  0  0  0  0  0  0  0  0
    1.9817   -1.6991   -0.3030 C   0  0  0  0  0  0  0  0  0  0  0  0
    1.3275   -1.2735    0.9906 C   0  0  0  0  0  0  0  0  0  0  0  0
    0.0988   -0.5600    0.7297 O   0  0  0  0  0  0  0  0  0  0  0  0
   -1.2704   -1.3060    0.2144 P   0  0  0  0  0  5  0  0  0  0  0  0
   -1.1535   -1.3885   -1.3221 O   0  0  0  0  0  0  0  0  0  0  0  0
   -2.3850   -0.4098    0.7140 O   0  0  0  0  0  1  0  0  0  0  0  0
   -1.2082   -2.6956    0.8357 O   0  0  0  0  0  1  0  0  0  0  0  0
    6.0987   -0.2803    2.6207 C   0  0  2  0  0  0  0  0  0  0  0  0
    4.9719    0.3402    3.2838 O   0  0  0  0  0  0  0  0  0  0  0  0
    8.6498   -0.0044    4.5881 H   0  0  0  0  0  0  0  0  0  0  0  0
    7.2592    1.4735    3.0038 H   0  0  0  0  0  0  0  0  0  0  0  0
    9.3837    0.7823    2.3476 H   0  0  0  0  0  0  0  0  0  0  0  0
   11.1281    1.6646    0.9977 H   0  0  0  0  0  0  0  0  0  0  0  0
   12.6005    2.5184    1.4757 H   0  0  0  0  0  0  0  0  0  0  0  0
   11.6869    1.8871   -1.3600 H   0  0  0  0  0  0  0  0  0  0  0  0
   11.8412    4.8820   -2.4212 H   0  0  0  0  0  0  0  0  0  0  0  0
   13.0571    4.9759    0.9631 H   0  0  0  0  0  0  0  0  0  0  0  0
   14.0444    6.9802    2.0067 H   0  0  0  0  0  0  0  0  0  0  0  0
   14.1527    8.7318   -1.8139 H   0  0  0  0  0  0  0  0  0  0  0  0
   14.5730    4.1411   -2.3957 H   0  0  0  0  0  0  0  0  0  0  0  0
   13.5651    2.1233   -3.4048 H   0  0  0  0  0  0  0  0  0  0  0  0
   14.3747    2.9234   -0.3182 H   0  0  0  0  0  0  0  0  0  0  0  0
   14.0842    0.6881   -0.9621 H   0  0  0  0  0  0  0  0  0  0  0  0
    7.3522   -1.7151    0.6805 H   0  0  0  0  0  0  0  0  0  0  0  0
    8.0817   -0.8470   -1.5505 H   0  0  0  0  0  0  0  0  0  0  0  0
    6.3715   -1.3032   -1.5519 H   0  0  0  0  0  0  0  0  0  0  0  0
    6.8683    0.4177   -1.4572 H   0  0  0  0  0  0  0  0  0  0  0  0
    5.8000    0.9485    0.8803 H   0  0  0  0  0  0  0  0  0  0  0  0
    4.4612    0.5996   -0.8307 H   0  0  0  0  0  0  0  0  0  0  0  0
    0.1443   -1.4753   -4.5365 H   0  0  0  0  0  0  0  0  0  0  0  0
    1.8110   -1.4533   -5.1153 H   0  0  0  0  0  0  0  0  0  0  0  0
    1.0436    0.0452   -4.5229 H   0  0  0  0  0  0  0  0  0  0  0  0
   -0.2159   -2.0077   -2.2745 H   0  0  0  0  0  0  0  0  0  0  0  0
    0.4684   -3.2073   -0.5530 H   0  0  0  0  0  0  0  0  0  0  0  0
    1.9842   -0.5905    1.5431 H   0  0  0  0  0  0  0  0  0  0  0  0
    1.1295   -2.1250    1.6529 H   0  0  0  0  0  0  0  0  0  0  0  0
    6.0871   -1.3333    2.9172 H   0  0  0  0  0  0  0  0  0  0  0  0
    4.2116    0.1659    2.6902 H   0  0  0  0  0  0  0  0  0  0  0  0
 51  1  1  0
  1  2  1  0
  2 52  1  1
  2  3  1  0
  3 53  1  1
  3  4  1  0
  4  5  1  0
  5  6  2  0
  5  7  1  1
  5  8  1  0
  8  9  1  0
  9 10  2  0
  9 11  1  1
  9 12  1  0
 12 13  1  0
 13 54  1  0
 13 55  1  0
 13 14  1  0
 14 56  1  6
 14 15  1  0
 15 16  1  0
 16 57  1  6
 16 17  1  0
 17 18  1  0
 18 58  1  0
 18 19  2  0
 19 59  1  0
 19 20  1  0
 20 21  2  0
 20 22  1  0
 22 60  1  0
 17 23  1  0
 22 23  1  0
 23 24  2  0
 16 25  1  0
 25 61  1  6
 25 26  1  0
 26 62  1  0
 14 27  1  0
 25 27  1  0
 27 63  1  1
 27 28  1  0
 28 64  1  0
  3 29  1  0
 29 30  1  0
 30 65  1  6
 30 31  1  0
 31 66  1  0
 31 67  1  0
 31 68  1  0
 30 32  1  0
 32 69  1  1
 32 33  1  0
 33 34  2  0
 34 70  1  0
 34 35  1  0
 35 36  2  0
 36 37  1  0
 36 38  1  0
 38 39  1  0
 39 71  1  0
 39 72  1  0
 39 73  1  0
 38 40  2  0
 40 74  1  0
 40 41  1  0
 41 75  1  0
 35 42  1  0
 41 42  2  0
 42 43  1  0
 43 76  1  0
 43 77  1  0
 43 44  1  0
 44 45  1  0
 45 46  2  0
 45 47  1  0
 45 48  1  0
  2 49  1  0
 32 49  1  0
 49 78  1  6
 49 50  1  0
 50 79  1  0
M  CHG  6   7  -1  11  -1  37  -1  40   1  47  -1  48  -1
M  END
>  <conformer_energy>  (1) 
-132.54

>  <ligand_smiles>  (1) 
Cc1[nH+]cc(COP(=O)([O-])[O-])c(/C=N/[C@H]2[C@H](O)[C@@H](O)[C@@H](O[P@](=O)([O-])O[P@](=O)([O-])OC[C@H]3O[C@@H](n4ccc(=O)[nH]c4=O)[C@H](O)[C@@H]3O)O[C@@H]2C)c1[O-]

>  <ligand_conf_name>  (1) 
MOL_0_isomer_0_conf_0

>  <ligand_molecule_name>  (1) 
MOL_0_isomer_0

$$$$
