1GPK - prepared_ligand_conf_0
     RDKit          3D

 37 39  0  0  0  0  0  0  0  0999 V2000
    3.1899   -1.1542   -1.2681 C   0  0  0  0  0  0  0  0  0  0  0  0
    3.5756   -1.7997   -0.1507 C   0  0  0  0  0  0  0  0  0  0  0  0
    4.5497   -2.9422   -0.1765 C   0  0  0  0  0  0  0  0  0  0  0  0
    3.0437   -1.3906    1.2063 C   0  0  0  0  0  0  0  0  0  0  0  0
    2.2808   -0.0268    1.1955 C   0  0  2  0  0  0  0  0  0  0  0  0
    1.4886    0.0533    2.4636 N   0  0  0  0  0  0  0  0  0  0  0  0
    1.3394   -0.0148   -0.0227 C   0  0  0  0  0  0  0  0  0  0  0  0
   -0.0130    0.0088   -0.0067 C   0  0  0  0  0  0  0  0  0  0  0  0
   -0.9368    0.0627   -1.1903 C   0  0  0  0  0  0  0  0  0  0  0  0
    2.1859   -0.0156   -1.2939 C   0  0  1  0  0  0  0  0  0  0  0  0
    2.8920    1.3523   -1.3927 C   0  0  0  0  0  0  0  0  0  0  0  0
    3.5093    1.7847   -0.0773 C   0  0  0  0  0  0  0  0  0  0  0  0
    3.2747    1.1547    1.0994 C   0  0  0  0  0  0  0  0  0  0  0  0
    4.0081    1.6111    2.2793 C   0  0  0  0  0  0  0  0  0  0  0  0
    4.8363    2.6649    2.2241 C   0  0  0  0  0  0  0  0  0  0  0  0
    5.0378    3.3823    0.9447 C   0  0  0  0  0  0  0  0  0  0  0  0
    5.7680    4.3597    0.8708 O   0  0  0  0  0  0  0  0  0  0  0  0
    4.3617    2.8649   -0.1295 N   0  0  0  0  0  0  0  0  0  0  0  0
    3.6064   -1.4451   -2.2334 H   0  0  0  0  0  0  0  0  0  0  0  0
    5.4392   -2.6954    0.4118 H   0  0  0  0  0  0  0  0  0  0  0  0
    4.8765   -3.1809   -1.1939 H   0  0  0  0  0  0  0  0  0  0  0  0
    4.0896   -3.8408    0.2467 H   0  0  0  0  0  0  0  0  0  0  0  0
    2.3756   -2.1910    1.5539 H   0  0  0  0  0  0  0  0  0  0  0  0
    3.8752   -1.3430    1.9217 H   0  0  0  0  0  0  0  0  0  0  0  0
    0.7862   -0.6929    2.4935 H   0  0  0  0  0  0  0  0  0  0  0  0
    2.0753   -0.0386    3.2965 H   0  0  0  0  0  0  0  0  0  0  0  0
    1.0061    0.9583    2.5038 H   0  0  0  0  0  0  0  0  0  0  0  0
   -0.5691    0.0028    0.9267 H   0  0  0  0  0  0  0  0  0  0  0  0
   -1.6881    0.8424   -1.0261 H   0  0  0  0  0  0  0  0  0  0  0  0
   -1.4580   -0.8934   -1.2971 H   0  0  0  0  0  0  0  0  0  0  0  0
   -0.4373    0.2951   -2.1320 H   0  0  0  0  0  0  0  0  0  0  0  0
    1.5762   -0.1647   -2.1895 H   0  0  0  0  0  0  0  0  0  0  0  0
    2.1645    2.1158   -1.6990 H   0  0  0  0  0  0  0  0  0  0  0  0
    3.6649    1.3147   -2.1714 H   0  0  0  0  0  0  0  0  0  0  0  0
    3.9342    1.0791    3.2205 H   0  0  0  0  0  0  0  0  0  0  0  0
    5.4087    3.0231    3.0714 H   0  0  0  0  0  0  0  0  0  0  0  0
    4.5338    3.3467   -1.0069 H   0  0  0  0  0  0  0  0  0  0  0  0
 19  1  1  0
  1  2  2  0
  2  3  1  0
  3 20  1  0
  3 21  1  0
  3 22  1  0
  2  4  1  0
  4 23  1  0
  4 24  1  0
  4  5  1  0
  5  6  1  1
  6 25  1  0
  6 26  1  0
  6 27  1  0
  5  7  1  0
  7  8  2  0
  8 28  1  0
  8  9  1  0
  9 29  1  0
  9 30  1  0
  9 31  1  0
  1 10  1  0
  7 10  1  0
 10 32  1  6
 10 11  1  0
 11 33  1  0
 11 34  1  0
 11 12  1  0
  5 13  1  0
 12 13  2  0
 13 14  1  0
 14 35  1  0
 14 15  2  0
 15 36  1  0
 15 16  1  0
 16 17  2  0
 12 18  1  0
 16 18  1  0
 18 37  1  0
M  CHG  1   6   1
M  END
>  <conformer_energy>  (1) 
33.35

>  <ligand_smiles>  (1) 
C/C=C1\[C@@H]2C=C(C)C[C@@]1([NH3+])c1ccc(=O)[nH]c1C2

>  <ligand_conf_name>  (1) 
1GPK - prepared_ligand_conf_0

>  <ligand_molecule_name>  (1) 
1GPK - prepared_ligand

>  <fragInfo>  (1) 
1 2 3 4 5 6 7 8 9 10 11 12 13 14 15 16 17 18 19 20 21 22 23 24 25 26 27 28 29 30 31 32 33 34 35 36 37


>  <torsionInfo>  (1) 


>  <atomInfo>  (1) 
1  -0.077493 C 
2  -0.069767 C 
3  -0.043637 C 
4  0.031798  C 
5  0.147733  C 
6  -0.345063 N 
7  -0.002014 C 
8  -0.081262 C 
9  -0.046444 C 
10 0.009907  C 
11 -0.001646 C 
12 0.028745  A 
13 0.036577  A 
14 -0.045174 A 
15 0.003830  A 
16 0.247636  A 
17 -0.269633 OA
18 -0.325657 N 
19 0.058188  H 
20 0.027625  H 
21 0.027625  H 
22 0.027625  H 
23 0.038509  H 
24 0.038509  H 
25 0.345061  HD
26 0.345061  HD
27 0.345061  HD
28 0.057517  H 
29 0.027350  H 
30 0.027350  H 
31 0.027350  H 
32 0.039897  H 
33 0.034092  H 
34 0.034092  H 
35 0.063089  H 
36 0.068109  H 
37 0.169454  HD


$$$$
