MOL_0_isomer_0_conf_0
     RDKit          3D

 24 24  0  0  0  0  0  0  0  0999 V2000
   -0.4311   -0.6034    1.5245 O   0  0  0  0  0  0  0  0  0  0  0  0
   -0.1759   -0.2812    0.1574 C   0  0  0  0  0  0  0  0  0  0  0  0
    1.2961    0.1264   -0.0212 C   0  0  1  0  0  0  0  0  0  0  0  0
    2.1932   -0.7899    0.6358 O   0  0  0  0  0  0  0  0  0  0  0  0
    2.4710   -2.0032   -0.0622 C   0  0  1  0  0  0  0  0  0  0  0  0
    1.3397   -2.8523   -0.0982 O   0  0  0  0  0  0  0  0  0  0  0  0
    3.0711   -1.7099   -1.4522 C   0  0  2  0  0  0  0  0  0  0  0  0
    4.3382   -1.0519   -1.3409 O   0  0  0  0  0  0  0  0  0  0  0  0
    2.1109   -0.8336   -2.2604 C   0  0  1  0  0  0  0  0  0  0  0  0
    0.9219   -1.5729   -2.5916 O   0  0  0  0  0  0  0  0  0  0  0  0
    1.7185    0.4260   -1.4726 C   0  0  1  0  0  0  0  0  0  0  0  0
    0.7096    1.1454   -2.1848 O   0  0  0  0  0  0  0  0  0  0  0  0
    0.2742   -1.2302    1.7809 H   0  0  0  0  0  0  0  0  0  0  0  0
   -0.4579   -1.1475   -0.4423 H   0  0  0  0  0  0  0  0  0  0  0  0
   -0.8423    0.5410   -0.1221 H   0  0  0  0  0  0  0  0  0  0  0  0
    1.4016    1.0620    0.5440 H   0  0  0  0  0  0  0  0  0  0  0  0
    3.2284   -2.5179    0.5383 H   0  0  0  0  0  0  0  0  0  0  0  0
    0.8912   -2.7135   -0.9541 H   0  0  0  0  0  0  0  0  0  0  0  0
    3.2272   -2.6564   -1.9821 H   0  0  0  0  0  0  0  0  0  0  0  0
    4.3436   -0.5499   -0.5022 H   0  0  0  0  0  0  0  0  0  0  0  0
    2.5694   -0.5198   -3.2063 H   0  0  0  0  0  0  0  0  0  0  0  0
    1.1120   -2.0485   -3.4249 H   0  0  0  0  0  0  0  0  0  0  0  0
    2.6021    1.0749   -1.4277 H   0  0  0  0  0  0  0  0  0  0  0  0
    0.1076    0.4760   -2.5660 H   0  0  0  0  0  0  0  0  0  0  0  0
 13  1  1  0
  1  2  1  0
  2 14  1  0
  2 15  1  0
  2  3  1  0
  3 16  1  1
  3  4  1  0
  4  5  1  0
  5 17  1  1
  5  6  1  0
  6 18  1  0
  5  7  1  0
  7 19  1  6
  7  8  1  0
  8 20  1  0
  7  9  1  0
  9 21  1  6
  9 10  1  0
 10 22  1  0
  3 11  1  0
  9 11  1  0
 11 23  1  1
 11 12  1  0
 12 24  1  0
M  END
>  <conformer_energy>  (1) 
92.90

>  <ligand_smiles>  (1) 
OC[C@H]1O[C@@H](O)[C@H](O)[C@@H](O)[C@H]1O

>  <ligand_conf_name>  (1) 
MOL_0_isomer_0_conf_0

>  <ligand_molecule_name>  (1) 
MOL_0_isomer_0

$$$$
