MOL_0_isomer_0_conf_0
     RDKit          3D

 18 18  0  0  0  0  0  0  0  0999 V2000
    3.7538   -0.0013    0.3281 C   0  0  0  0  0  0  0  0  0  0  0  0
    3.6654   -1.3109   -0.7565 S   0  0  0  0  0  0  0  0  0  0  0  0
    1.9809   -1.4606   -0.5181 C   0  0  0  0  0  0  0  0  0  0  0  0
    1.1037   -2.5634   -1.2578 C   0  0  0  0  0  0  0  0  0  0  0  0
   -0.1385   -2.5506   -0.9782 O   0  0  0  0  0  0  0  0  0  0  0  0
    1.6963   -3.3531   -2.0517 O   0  0  0  0  0  1  0  0  0  0  0  0
    1.4707   -0.5293    0.3773 C   0  0  0  0  0  0  0  0  0  0  0  0
    0.1097   -0.5183    0.6811 N   0  0  0  0  0  0  0  0  0  0  0  0
   -0.6503    0.2592    1.5009 C   0  0  0  0  0  0  0  0  0  0  0  0
   -1.8665    0.0678    1.6029 O   0  0  0  0  0  0  0  0  0  0  0  0
   -0.0213    1.3651    2.2970 C   0  0  0  0  0  0  0  0  0  0  0  0
    2.5211    0.3128    0.8598 C   0  0  0  0  0  0  0  0  0  0  0  0
    4.7020    0.4766    0.5257 H   0  0  0  0  0  0  0  0  0  0  0  0
   -0.4192   -1.2510    0.1780 H   0  0  0  0  0  0  0  0  0  0  0  0
    0.4216    2.1081    1.6298 H   0  0  0  0  0  0  0  0  0  0  0  0
    0.7166    0.9593    2.9928 H   0  0  0  0  0  0  0  0  0  0  0  0
   -0.7933    1.8685    2.8883 H   0  0  0  0  0  0  0  0  0  0  0  0
    2.4224    1.1227    1.5637 H   0  0  0  0  0  0  0  0  0  0  0  0
 13  1  1  0
  1  2  1  0
  2  3  1  0
  3  4  1  0
  4  5  2  0
  4  6  1  0
  3  7  2  0
  7  8  1  0
  8 14  1  0
  8  9  1  0
  9 10  2  0
  9 11  1  0
 11 15  1  0
 11 16  1  0
 11 17  1  0
  1 12  2  0
  7 12  1  0
 12 18  1  0
M  CHG  1   6  -1
M  END
>  <conformer_energy>  (1) 
1.66

>  <ligand_smiles>  (1) 
CC(=O)Nc1ccsc1C(=O)[O-]

>  <ligand_conf_name>  (1) 
MOL_0_isomer_0_conf_0

>  <ligand_molecule_name>  (1) 
MOL_0_isomer_0

$$$$
