MOL_0_isomer_0_conf_0
     RDKit          3D

 25 24  0  0  0  0  0  0  0  0999 V2000
    4.2413   -3.7292    3.4892 C   0  0  0  0  0  0  0  0  0  0  0  0
    4.5207   -2.5960    2.5143 C   0  0  0  0  0  0  0  0  0  0  0  0
    3.6741   -2.6630    1.2409 C   0  0  0  0  0  0  0  0  0  0  0  0
    2.1582   -2.5897    1.4498 C   0  0  0  0  0  0  0  0  0  0  0  0
    1.6504   -1.3459    2.1862 C   0  0  0  0  0  0  0  0  0  0  0  0
    2.0241    0.0002    1.5540 C   0  0  0  0  0  0  0  0  0  0  0  0
    1.5414    0.1862    0.1180 C   0  0  0  0  0  0  0  0  0  0  0  0
    0.0223    0.1831   -0.0753 C   0  0  0  0  0  0  0  0  0  0  0  0
   -0.6580    0.6759    0.8666 O   0  0  0  0  0  0  0  0  0  0  0  0
   -0.3646   -0.3037   -1.1761 O   0  0  0  0  0  1  0  0  0  0  0  0
    4.9415   -3.6828    4.3294 H   0  0  0  0  0  0  0  0  0  0  0  0
    4.3590   -4.7032    3.0038 H   0  0  0  0  0  0  0  0  0  0  0  0
    3.2288   -3.6659    3.8984 H   0  0  0  0  0  0  0  0  0  0  0  0
    4.3773   -1.6350    3.0198 H   0  0  0  0  0  0  0  0  0  0  0  0
    5.5782   -2.6385    2.2264 H   0  0  0  0  0  0  0  0  0  0  0  0
    3.9025   -3.5985    0.7145 H   0  0  0  0  0  0  0  0  0  0  0  0
    3.9895   -1.8565    0.5686 H   0  0  0  0  0  0  0  0  0  0  0  0
    1.6694   -2.6561    0.4704 H   0  0  0  0  0  0  0  0  0  0  0  0
    1.8256   -3.4776    2.0011 H   0  0  0  0  0  0  0  0  0  0  0  0
    0.5589   -1.4177    2.2655 H   0  0  0  0  0  0  0  0  0  0  0  0
    2.0217   -1.3586    3.2179 H   0  0  0  0  0  0  0  0  0  0  0  0
    1.6152    0.8003    2.1836 H   0  0  0  0  0  0  0  0  0  0  0  0
    3.1126    0.1275    1.5790 H   0  0  0  0  0  0  0  0  0  0  0  0
    1.9953   -0.5692   -0.5334 H   0  0  0  0  0  0  0  0  0  0  0  0
    1.8978    1.1584   -0.2455 H   0  0  0  0  0  0  0  0  0  0  0  0
 11  1  1  0
  1 12  1  0
  1 13  1  0
  1  2  1  0
  2 14  1  0
  2 15  1  0
  2  3  1  0
  3 16  1  0
  3 17  1  0
  3  4  1  0
  4 18  1  0
  4 19  1  0
  4  5  1  0
  5 20  1  0
  5 21  1  0
  5  6  1  0
  6 22  1  0
  6 23  1  0
  6  7  1  0
  7 24  1  0
  7 25  1  0
  7  8  1  0
  8  9  2  0
  8 10  1  0
M  CHG  1  10  -1
M  END
>  <conformer_energy>  (1) 
3.37

>  <ligand_smiles>  (1) 
CCCCCCCC(=O)[O-]

>  <ligand_conf_name>  (1) 
MOL_0_isomer_0_conf_0

>  <ligand_molecule_name>  (1) 
MOL_0_isomer_0

$$$$
