MOL_0_isomer_0_conf_0
     RDKit          3D

 15 15  0  0  0  0  0  0  0  0999 V2000
    5.6225    0.0198   -0.1127 O   0  0  0  0  0  0  0  0  0  0  0  0
    4.2578    0.0142   -0.0558 C   0  0  0  0  0  0  0  0  0  0  0  0
    3.5535    0.0084   -1.2529 C   0  0  0  0  0  0  0  0  0  0  0  0
    2.1562    0.0026   -1.2309 C   0  0  0  0  0  0  0  0  0  0  0  0
    1.4524    0.0026   -0.0142 C   0  0  0  0  0  0  0  0  0  0  0  0
   -0.0649   -0.0036    0.0113 C   0  0  0  0  0  0  0  0  0  0  0  0
   -0.6237   -0.0032    1.1540 O   0  0  0  0  0  0  0  0  0  0  0  0
   -0.6646   -0.0088   -1.1099 O   0  0  0  0  0  1  0  0  0  0  0  0
    2.1918    0.0086    1.1813 C   0  0  0  0  0  0  0  0  0  0  0  0
    3.5890    0.0144    1.1645 C   0  0  0  0  0  0  0  0  0  0  0  0
    5.9491    0.0234    0.8009 H   0  0  0  0  0  0  0  0  0  0  0  0
    4.0802    0.0082   -2.2010 H   0  0  0  0  0  0  0  0  0  0  0  0
    1.5972   -0.0020   -2.1654 H   0  0  0  0  0  0  0  0  0  0  0  0
    1.6577    0.0087    2.1305 H   0  0  0  0  0  0  0  0  0  0  0  0
    4.1232    0.0190    2.1075 H   0  0  0  0  0  0  0  0  0  0  0  0
 11  1  1  0
  1  2  1  0
  2  3  2  0
  3 12  1  0
  3  4  1  0
  4 13  1  0
  4  5  2  0
  5  6  1  0
  6  7  2  0
  6  8  1  0
  5  9  1  0
  9 14  1  0
  2 10  1  0
  9 10  2  0
 10 15  1  0
M  CHG  1   8  -1
M  END
>  <conformer_energy>  (1) 
25.47

>  <ligand_smiles>  (1) 
O=C([O-])c1ccc(O)cc1

>  <ligand_conf_name>  (1) 
MOL_0_isomer_0_conf_0

>  <ligand_molecule_name>  (1) 
MOL_0_isomer_0

$$$$
