MOL_0_isomer_0_conf_0
     RDKit          3D

 30 32  0  0  0  0  0  0  0  0999 V2000
   -4.3082    0.0951   -0.2975 O   0  0  0  0  0  0  0  0  0  0  0  0
   -2.9623   -0.1185   -0.3148 C   0  0  0  0  0  0  0  0  0  0  0  0
   -2.1478    0.8271    0.2926 C   0  0  0  0  0  0  0  0  0  0  0  0
   -0.7605    0.6531    0.3010 C   0  0  0  0  0  0  0  0  0  0  0  0
   -0.1752   -0.4689   -0.3063 C   0  0  0  0  0  0  0  0  0  0  0  0
    1.3297   -0.7281   -0.3189 C   0  0  1  0  0  0  0  0  0  0  0  0
    1.7698   -1.1060   -1.6403 O   0  0  0  0  0  0  0  0  0  0  0  0
    1.9363   -0.0509   -2.4982 C   0  0  0  0  0  0  0  0  0  0  0  0
    1.8832   -0.3403   -3.8609 C   0  0  0  0  0  0  0  0  0  0  0  0
    2.0314    0.6843   -4.7984 C   0  0  0  0  0  0  0  0  0  0  0  0
    2.2418    1.9979   -4.3751 C   0  0  0  0  0  0  0  0  0  0  0  0
    2.3150    2.2884   -3.0124 C   0  0  0  0  0  0  0  0  0  0  0  0
    2.1688    1.2584   -2.0789 C   0  0  0  0  0  0  0  0  0  0  0  0
    2.3005    1.5273   -0.6358 C   0  0  0  0  0  0  0  0  0  0  0  0
    2.4932    2.6629   -0.2135 O   0  0  0  0  0  0  0  0  0  0  0  0
    2.2570    0.3298    0.2701 C   0  0  0  0  0  0  0  0  0  0  0  0
   -1.0275   -1.4167   -0.9070 C   0  0  0  0  0  0  0  0  0  0  0  0
   -2.4138   -1.2433   -0.9158 C   0  0  0  0  0  0  0  0  0  0  0  0
   -4.7432   -0.6340   -0.7686 H   0  0  0  0  0  0  0  0  0  0  0  0
   -2.5900    1.7025    0.7608 H   0  0  0  0  0  0  0  0  0  0  0  0
   -0.1630    1.4184    0.7904 H   0  0  0  0  0  0  0  0  0  0  0  0
    1.4674   -1.6261    0.2991 H   0  0  0  0  0  0  0  0  0  0  0  0
    1.7144   -1.3608   -4.1944 H   0  0  0  0  0  0  0  0  0  0  0  0
    1.9802    0.4583   -5.8609 H   0  0  0  0  0  0  0  0  0  0  0  0
    2.3559    2.7944   -5.1067 H   0  0  0  0  0  0  0  0  0  0  0  0
    2.4944    3.3093   -2.6825 H   0  0  0  0  0  0  0  0  0  0  0  0
    3.2818   -0.0548    0.3379 H   0  0  0  0  0  0  0  0  0  0  0  0
    1.9368    0.6336    1.2716 H   0  0  0  0  0  0  0  0  0  0  0  0
   -0.6061   -2.3020   -1.3812 H   0  0  0  0  0  0  0  0  0  0  0  0
   -3.0396   -1.9908   -1.3924 H   0  0  0  0  0  0  0  0  0  0  0  0
 19  1  1  0
  1  2  1  0
  2  3  2  0
  3 20  1  0
  3  4  1  0
  4 21  1  0
  4  5  2  0
  5  6  1  0
  6 22  1  1
  6  7  1  0
  7  8  1  0
  8  9  2  0
  9 23  1  0
  9 10  1  0
 10 24  1  0
 10 11  2  0
 11 25  1  0
 11 12  1  0
 12 26  1  0
  8 13  1  0
 12 13  2  0
 13 14  1  0
 14 15  2  0
  6 16  1  0
 14 16  1  0
 16 27  1  0
 16 28  1  0
  5 17  1  0
 17 29  1  0
  2 18  1  0
 17 18  2  0
 18 30  1  0
M  END
>  <conformer_energy>  (1) 
41.91

>  <ligand_smiles>  (1) 
O=C1C[C@@H](c2ccc(O)cc2)Oc2ccccc21

>  <ligand_conf_name>  (1) 
MOL_0_isomer_0_conf_0

>  <ligand_molecule_name>  (1) 
MOL_0_isomer_0

$$$$
