MOL_0_isomer_0_conf_0
     RDKit          3D

 18 18  0  0  0  0  0  0  0  0999 V2000
    4.1805   -0.1704    0.1089 C   0  0  0  0  0  0  0  0  0  0  0  0
    3.4336   -0.4808    1.1910 N   0  0  0  0  0  0  0  0  0  0  0  0
    2.0937   -0.3004    1.0806 C   0  0  0  0  0  0  0  0  0  0  0  0
    1.4704    0.1655   -0.0717 C   0  0  0  0  0  0  0  0  0  0  0  0
   -0.0052    0.3205   -0.1473 C   0  0  0  0  0  0  0  0  0  0  0  0
   -0.8679    1.1757    1.0121 S   0  0  0  0  0  0  0  0  0  0  0  0
   -0.5744   -0.2957   -1.2527 N   0  0  0  0  0  0  0  0  0  0  0  0
   -1.9861   -0.2925   -1.5873 C   0  0  0  0  0  0  0  0  0  0  0  0
    2.2727    0.4735   -1.1738 C   0  0  0  0  0  0  0  0  0  0  0  0
    3.6526    0.3051   -1.0819 C   0  0  0  0  0  0  0  0  0  0  0  0
    5.2507   -0.3164    0.2285 H   0  0  0  0  0  0  0  0  0  0  0  0
    1.5277   -0.5637    1.9700 H   0  0  0  0  0  0  0  0  0  0  0  0
    0.0273   -0.8327   -1.8674 H   0  0  0  0  0  0  0  0  0  0  0  0
   -2.5495   -0.7925   -0.7952 H   0  0  0  0  0  0  0  0  0  0  0  0
   -2.1181   -0.8326   -2.5281 H   0  0  0  0  0  0  0  0  0  0  0  0
   -2.3342    0.7371   -1.7043 H   0  0  0  0  0  0  0  0  0  0  0  0
    1.8352    0.8618   -2.0893 H   0  0  0  0  0  0  0  0  0  0  0  0
    4.3028    0.5448   -1.9162 H   0  0  0  0  0  0  0  0  0  0  0  0
 11  1  1  0
  1  2  2  0
  2  3  1  0
  3 12  1  0
  3  4  2  0
  4  5  1  0
  5  6  2  0
  5  7  1  0
  7 13  1  0
  7  8  1  0
  8 14  1  0
  8 15  1  0
  8 16  1  0
  4  9  1  0
  9 17  1  0
  1 10  1  0
  9 10  2  0
 10 18  1  0
M  END
>  <conformer_energy>  (1) 
28.13

>  <ligand_smiles>  (1) 
CNC(=S)c1cccnc1

>  <ligand_conf_name>  (1) 
MOL_0_isomer_0_conf_0

>  <ligand_molecule_name>  (1) 
MOL_0_isomer_0

$$$$
