1OPK - prepared_ligand_conf_0
     RDKit          3D

 45 48  0  0  0  0  0  0  0  0999 V2000
   -0.7837    0.1688    0.2702 O   0  0  0  0  0  0  0  0  0  0  0  0
    0.1510    0.4988   -0.7482 C   0  0  0  0  0  0  0  0  0  0  0  0
    1.5471    0.1385   -0.3197 C   0  0  0  0  0  0  0  0  0  0  0  0
    2.1588   -1.0292   -0.7809 C   0  0  0  0  0  0  0  0  0  0  0  0
    3.4415   -1.3578   -0.3511 C   0  0  0  0  0  0  0  0  0  0  0  0
    4.1197   -0.5277    0.5477 C   0  0  0  0  0  0  0  0  0  0  0  0
    3.5340    0.6426    1.0372 C   0  0  0  0  0  0  0  0  0  0  0  0
    4.1550    1.5094    1.9426 N   0  0  0  0  0  0  0  0  0  0  0  0
    5.3863    1.5171    2.5902 C   0  0  0  0  0  0  0  0  0  0  0  0
    6.2889    0.5427    2.4170 N   0  0  0  0  0  0  0  0  0  0  0  0
    7.4500    0.6437    3.0907 C   0  0  0  0  0  0  0  0  0  0  0  0
    7.7515    1.6836    3.9369 C   0  0  0  0  0  0  0  0  0  0  0  0
    9.0072    1.7859    4.6609 C   0  0  0  0  0  0  0  0  0  0  0  0
    9.2198    2.8369    5.4682 C   0  0  0  0  0  0  0  0  0  0  0  0
   10.4933    2.9476    6.2070 C   0  0  0  0  0  0  0  0  0  0  0  0
   11.5960    3.6209    5.6501 C   0  0  0  0  0  0  0  0  0  0  0  0
   11.5351    4.3227    4.0676 Cl  0  0  0  0  0  0  0  0  0  0  0  0
   12.7971    3.7388    6.3586 C   0  0  0  0  0  0  0  0  0  0  0  0
   12.9162    3.1890    7.6331 C   0  0  0  0  0  0  0  0  0  0  0  0
   11.8347    2.5187    8.2003 C   0  0  0  0  0  0  0  0  0  0  0  0
   10.6319    2.3987    7.4950 C   0  0  0  0  0  0  0  0  0  0  0  0
    9.3405    1.5405    8.2671 Cl  0  0  0  0  0  0  0  0  0  0  0  0
    8.1757    3.9050    5.6299 C   0  0  0  0  0  0  0  0  0  0  0  0
    8.3994    4.8567    6.3771 O   0  0  0  0  0  0  0  0  0  0  0  0
    6.9993    3.7509    4.9132 N   0  0  0  0  0  0  0  0  0  0  0  0
    5.9485    4.7472    5.0242 C   0  0  0  0  0  0  0  0  0  0  0  0
    6.7668    2.6435    4.0581 C   0  0  0  0  0  0  0  0  0  0  0  0
    5.5923    2.5706    3.3960 N   0  0  0  0  0  0  0  0  0  0  0  0
    2.2385    0.9565    0.5907 C   0  0  0  0  0  0  0  0  0  0  0  0
   -0.3390   -0.4271    0.8977 H   0  0  0  0  0  0  0  0  0  0  0  0
   -0.1309   -0.0365   -1.6610 H   0  0  0  0  0  0  0  0  0  0  0  0
    0.0768    1.5703   -0.9612 H   0  0  0  0  0  0  0  0  0  0  0  0
    1.6431   -1.6889   -1.4751 H   0  0  0  0  0  0  0  0  0  0  0  0
    3.9214   -2.2641   -0.7121 H   0  0  0  0  0  0  0  0  0  0  0  0
    5.1178   -0.8237    0.8550 H   0  0  0  0  0  0  0  0  0  0  0  0
    3.6356    2.3305    2.2163 H   0  0  0  0  0  0  0  0  0  0  0  0
    8.1466   -0.1711    2.9152 H   0  0  0  0  0  0  0  0  0  0  0  0
    9.7475    1.0032    4.5294 H   0  0  0  0  0  0  0  0  0  0  0  0
   13.6434    4.2641    5.9212 H   0  0  0  0  0  0  0  0  0  0  0  0
   13.8486    3.2860    8.1846 H   0  0  0  0  0  0  0  0  0  0  0  0
   11.9314    2.0939    9.1971 H   0  0  0  0  0  0  0  0  0  0  0  0
    5.0389    4.2751    5.4095 H   0  0  0  0  0  0  0  0  0  0  0  0
    6.2276    5.5556    5.7057 H   0  0  0  0  0  0  0  0  0  0  0  0
    5.7552    5.1833    4.0387 H   0  0  0  0  0  0  0  0  0  0  0  0
    1.7468    1.8562    0.9579 H   0  0  0  0  0  0  0  0  0  0  0  0
 30  1  1  0
  1  2  1  0
  2 31  1  0
  2 32  1  0
  2  3  1  0
  3  4  2  0
  4 33  1  0
  4  5  1  0
  5 34  1  0
  5  6  2  0
  6 35  1  0
  6  7  1  0
  7  8  1  0
  8 36  1  0
  8  9  1  0
  9 10  2  0
 10 11  1  0
 11 37  1  0
 11 12  2  0
 12 13  1  0
 13 38  1  0
 13 14  2  0
 14 15  1  0
 15 16  2  0
 16 17  1  0
 16 18  1  0
 18 39  1  0
 18 19  2  0
 19 40  1  0
 19 20  1  0
 20 41  1  0
 15 21  1  0
 20 21  2  0
 21 22  1  0
 14 23  1  0
 23 24  2  0
 23 25  1  0
 25 26  1  0
 26 42  1  0
 26 43  1  0
 26 44  1  0
 12 27  1  0
 25 27  1  0
  9 28  1  0
 27 28  2  0
  3 29  1  0
  7 29  2  0
 29 45  1  0
M  END
>  <conformer_energy>  (1) 
-32.83

>  <ligand_smiles>  (1) 
Cn1c(=O)c(-c2c(Cl)cccc2Cl)cc2cnc(Nc3cccc(CO)c3)nc21

>  <ligand_conf_name>  (1) 
1OPK - prepared_ligand_conf_0

>  <ligand_molecule_name>  (1) 
1OPK - prepared_ligand

>  <fragInfo>  (1) 
9 10 11 12 13 14 23 24 25 26 27 28 37 38 42 43 44
1 2 30 31 32
3 4 5 6 7 29 33 34 35 45
8 36
15 16 17 18 19 20 21 22 39 40 41


>  <torsionInfo>  (1) 
8 9 3 0
14 15 0 4
2 3 1 2
7 8 2 3


>  <atomInfo>  (1) 
1  -0.391679 OA
2  0.068212  C 
3  -0.020582 A 
4  -0.056582 A 
5  -0.059841 A 
6  -0.038506 A 
7  0.041233  A 
8  -0.324114 N 
9  0.228683  A 
10 -0.220590 NA
11 0.041846  A 
12 0.036884  A 
13 -0.036151 A 
14 0.050941  A 
15 0.024511  A 
16 0.050093  A 
17 -0.083604 Cl
18 -0.042782 A 
19 -0.059262 A 
20 -0.042782 A 
21 0.050093  A 
22 -0.083604 Cl
23 0.259430  A 
24 -0.268632 OA
25 -0.295146 N 
26 0.016325  C 
27 0.147668  A 
28 -0.194376 NA
29 -0.033000 A 
30 0.210528  HD
31 0.061536  H 
32 0.061536  H 
33 0.062650  H 
34 0.062357  H 
35 0.064470  H 
36 0.169681  HD
37 0.084926  H 
38 0.063960  H 
39 0.063865  H 
40 0.062375  H 
41 0.063865  H 
42 0.046239  H 
43 0.046239  H 
44 0.046239  H 
45 0.064852  H 


$$$$
