MOL_0_isomer_0_conf_0
     RDKit          3D

 43 46  0  0  0  0  0  0  0  0999 V2000
    2.1424   -1.1233   -0.7598 C   0  0  0  0  0  0  0  0  0  0  0  0
    3.3987   -0.8058   -1.3021 C   0  0  0  0  0  0  0  0  0  0  0  0
    4.0083   -1.6587   -2.3998 C   0  0  0  0  0  0  0  0  0  0  0  0
    3.3078   -2.6209   -2.8541 O   0  0  0  0  0  0  0  0  0  0  0  0
    5.1768   -1.3520   -2.8014 O   0  0  0  0  0  1  0  0  0  0  0  0
    4.0751    0.3158   -0.8041 C   0  0  0  0  0  0  0  0  0  0  0  0
    3.4741    1.0849    0.2073 C   0  0  0  0  0  0  0  0  0  0  0  0
    4.0909    2.4970    0.9865 S   0  0  0  0  0  0  0  0  0  0  0  0
    2.6655    2.6200    1.9434 C   0  0  0  0  0  0  0  0  0  0  0  0
    2.5718    3.6645    2.8012 N   0  0  0  0  0  2  0  0  0  0  0  0
    1.5309    3.7252    3.6300 C   0  0  0  0  0  0  0  0  0  0  0  0
    0.7659    2.8371    4.0084 O   0  0  0  0  0  0  0  0  0  0  0  0
    1.3431    5.0723    4.1638 C   0  0  0  0  0  0  0  0  0  0  0  0
    2.0006    6.2913    4.0681 C   0  0  0  0  0  0  0  0  0  0  0  0
    3.4223    6.6843    3.2045 Cl  0  0  0  0  0  0  0  0  0  0  0  0
    1.2747    7.2344    4.8542 C   0  0  0  0  0  0  0  0  0  0  0  0
    1.6689    8.8810    5.0723 Cl  0  0  0  0  0  0  0  0  0  0  0  0
    0.1929    6.5870    5.4148 C   0  0  0  0  0  0  0  0  0  0  0  0
   -0.8863    7.0680    6.3067 C   0  0  0  0  0  0  0  0  0  0  0  0
    0.2549    5.2878    4.9874 N   0  0  0  0  0  0  0  0  0  0  0  0
    1.7778    1.6865    1.7010 N   0  0  0  0  0  0  0  0  0  0  0  0
    2.2187    0.7792    0.7337 C   0  0  0  0  0  0  0  0  0  0  0  0
    1.4960   -0.3608    0.2489 C   0  0  0  0  0  0  0  0  0  0  0  0
    0.2320   -0.7802    0.7111 N   0  0  0  0  0  0  0  0  0  0  0  0
   -0.2900   -0.2437    1.9838 C   0  0  0  0  0  0  0  0  0  0  0  0
   -1.2049    0.9691    1.7337 C   0  0  0  0  0  0  0  0  0  0  0  0
   -2.2716    0.6318    0.8078 O   0  0  0  0  0  0  0  0  0  0  0  0
   -1.6937    0.2222   -0.4484 C   0  0  0  0  0  0  0  0  0  0  0  0
   -0.8179   -1.0328   -0.2843 C   0  0  0  0  0  0  0  0  0  0  0  0
    1.6579   -2.0265   -1.1292 H   0  0  0  0  0  0  0  0  0  0  0  0
    5.0520    0.5829   -1.1981 H   0  0  0  0  0  0  0  0  0  0  0  0
   -1.6037    6.2742    6.5390 H   0  0  0  0  0  0  0  0  0  0  0  0
   -1.4351    7.8892    5.8347 H   0  0  0  0  0  0  0  0  0  0  0  0
   -0.4680    7.4308    7.2509 H   0  0  0  0  0  0  0  0  0  0  0  0
   -0.3850    4.5337    5.2069 H   0  0  0  0  0  0  0  0  0  0  0  0
    0.4914   -0.0422    2.7225 H   0  0  0  0  0  0  0  0  0  0  0  0
   -0.9071   -1.0373    2.4261 H   0  0  0  0  0  0  0  0  0  0  0  0
   -0.6687    1.8340    1.3325 H   0  0  0  0  0  0  0  0  0  0  0  0
   -1.6777    1.2748    2.6722 H   0  0  0  0  0  0  0  0  0  0  0  0
   -1.1222    1.0575   -0.8706 H   0  0  0  0  0  0  0  0  0  0  0  0
   -2.5215    0.0055   -1.1310 H   0  0  0  0  0  0  0  0  0  0  0  0
   -1.4431   -1.8521    0.0916 H   0  0  0  0  0  0  0  0  0  0  0  0
   -0.4348   -1.3458   -1.2604 H   0  0  0  0  0  0  0  0  0  0  0  0
 30  1  1  0
  1  2  2  0
  2  3  1  0
  3  4  2  0
  3  5  1  0
  2  6  1  0
  6 31  1  0
  6  7  2  0
  7  8  1  0
  8  9  1  0
  9 10  1  0
 10 11  1  0
 11 12  2  0
 11 13  1  0
 13 14  2  0
 14 15  1  0
 14 16  1  0
 16 17  1  0
 16 18  2  0
 18 19  1  0
 19 32  1  0
 19 33  1  0
 19 34  1  0
 13 20  1  0
 18 20  1  0
 20 35  1  0
  9 21  2  0
  7 22  1  0
 21 22  1  0
  1 23  1  0
 22 23  2  0
 23 24  1  0
 24 25  1  0
 25 36  1  0
 25 37  1  0
 25 26  1  0
 26 38  1  0
 26 39  1  0
 26 27  1  0
 27 28  1  0
 28 40  1  0
 28 41  1  0
 24 29  1  0
 28 29  1  0
 29 42  1  0
 29 43  1  0
M  CHG  2   5  -1  10  -1
M  END
>  <conformer_energy>  (1) 
170.50

>  <ligand_smiles>  (1) 
Cc1[nH]c(C(=O)[N-]c2nc3c(N4CCOCC4)cc(C(=O)[O-])cc3s2)c(Cl)c1Cl

>  <ligand_conf_name>  (1) 
MOL_0_isomer_0_conf_0

>  <ligand_molecule_name>  (1) 
MOL_0_isomer_0

$$$$
