MOL_0_isomer_0_conf_0
     RDKit          3D

 31 33  0  0  0  0  0  0  0  0999 V2000
    2.3340    0.7231   -4.0923 O   0  0  0  0  0  0  0  0  0  0  0  0
    2.5845   -0.4439   -3.3125 C   0  0  0  0  0  0  0  0  0  0  0  0
    3.0130   -0.0375   -1.9005 C   0  0  1  0  0  0  0  0  0  0  0  0
    1.9389    0.7324   -1.3040 O   0  0  0  0  0  0  0  0  0  0  0  0
    1.4394   -0.0127   -0.1756 C   0  0  1  0  0  0  0  0  0  0  0  0
    0.0079    0.1626   -0.0788 N   0  0  0  0  0  0  0  0  0  0  0  0
   -0.6469    0.6963    1.0019 C   0  0  0  0  0  0  0  0  0  0  0  0
   -1.9507    0.7288    0.8251 N   0  0  0  0  0  0  0  0  0  0  0  0
   -2.1457    0.2020   -0.4364 C   0  0  0  0  0  0  0  0  0  0  0  0
   -3.3046   -0.0240   -1.1987 C   0  0  0  0  0  0  0  0  0  0  0  0
   -4.5691    0.2847   -0.7528 N   0  0  0  0  0  0  0  0  0  0  0  0
   -3.1726   -0.5705   -2.4286 N   0  0  0  0  0  0  0  0  0  0  0  0
   -1.9313   -0.8747   -2.8637 C   0  0  0  0  0  0  0  0  0  0  0  0
   -0.7552   -0.7142   -2.2241 N   0  0  0  0  0  0  0  0  0  0  0  0
   -0.9382   -0.1608   -1.0134 C   0  0  0  0  0  0  0  0  0  0  0  0
    1.9099   -1.4502   -0.3396 C   0  0  0  0  0  0  0  0  0  0  0  0
    3.2559   -1.2418   -0.9907 C   0  0  2  0  0  0  0  0  0  0  0  0
    4.1848   -0.9141    0.0462 O   0  0  0  0  0  0  0  0  0  0  0  0
    1.6992    1.2535   -3.5703 H   0  0  0  0  0  0  0  0  0  0  0  0
    1.6694   -1.0414   -3.3089 H   0  0  0  0  0  0  0  0  0  0  0  0
    3.3723   -1.0197   -3.8073 H   0  0  0  0  0  0  0  0  0  0  0  0
    3.8834    0.6259   -1.9512 H   0  0  0  0  0  0  0  0  0  0  0  0
    1.8907    0.4328    0.7201 H   0  0  0  0  0  0  0  0  0  0  0  0
   -0.1278    1.0446    1.8864 H   0  0  0  0  0  0  0  0  0  0  0  0
   -5.3488    0.1032   -1.3634 H   0  0  0  0  0  0  0  0  0  0  0  0
   -4.6791    0.7039    0.1592 H   0  0  0  0  0  0  0  0  0  0  0  0
   -1.8749   -1.3066   -3.8591 H   0  0  0  0  0  0  0  0  0  0  0  0
    1.2577   -2.0217   -1.0081 H   0  0  0  0  0  0  0  0  0  0  0  0
    1.9551   -1.9695    0.6230 H   0  0  0  0  0  0  0  0  0  0  0  0
    3.6296   -2.1285   -1.5105 H   0  0  0  0  0  0  0  0  0  0  0  0
    5.0513   -0.7505   -0.3687 H   0  0  0  0  0  0  0  0  0  0  0  0
 19  1  1  0
  1  2  1  0
  2 20  1  0
  2 21  1  0
  2  3  1  0
  3 22  1  6
  3  4  1  0
  4  5  1  0
  5 23  1  1
  5  6  1  0
  6  7  1  0
  7 24  1  0
  7  8  2  0
  8  9  1  0
  9 10  1  0
 10 11  1  0
 11 25  1  0
 11 26  1  0
 10 12  2  0
 12 13  1  0
 13 27  1  0
 13 14  2  0
  9 15  2  0
  6 15  1  0
 14 15  1  0
  5 16  1  0
 16 28  1  0
 16 29  1  0
  3 17  1  0
 16 17  1  0
 17 30  1  6
 17 18  1  0
 18 31  1  0
M  END
>  <conformer_energy>  (1) 
41.99

>  <ligand_smiles>  (1) 
Nc1ncnc2c1ncn2[C@H]1C[C@H](O)[C@@H](CO)O1

>  <ligand_conf_name>  (1) 
MOL_0_isomer_0_conf_0

>  <ligand_molecule_name>  (1) 
MOL_0_isomer_0

$$$$
