MOL_0_isomer_0_conf_0
     RDKit          3D

 42 43  0  0  0  0  0  0  0  0999 V2000
   10.6279    0.6435    1.2812 C   0  0  0  0  0  0  0  0  0  0  0  0
    9.6406    1.3578    1.9578 C   0  0  0  0  0  0  0  0  0  0  0  0
    8.3187    0.9107    1.9388 C   0  0  0  0  0  0  0  0  0  0  0  0
    7.9708   -0.2571    1.2425 C   0  0  0  0  0  0  0  0  0  0  0  0
    6.5416   -0.7394    1.2337 C   0  0  0  0  0  0  0  0  0  0  0  0
    5.7440    0.2233    0.5442 O   0  0  0  0  0  0  0  0  0  0  0  0
    4.4153   -0.0503    0.3950 C   0  0  0  0  0  0  0  0  0  0  0  0
    3.7219   -1.1129    0.9696 C   0  0  0  0  0  0  0  0  0  0  0  0
    2.3492   -1.2656    0.7404 C   0  0  0  0  0  0  0  0  0  0  0  0
    1.6517   -0.3519   -0.0611 C   0  0  0  0  0  0  0  0  0  0  0  0
    0.1600   -0.4759   -0.2668 C   0  0  0  0  0  0  0  0  0  0  0  0
   -0.6829   -0.0388    0.9423 C   0  0  1  0  0  0  0  0  0  0  0  0
   -0.6970   -1.0671    2.0856 C   0  0  0  0  0  0  0  0  0  0  0  0
   -0.2897   -0.7271    3.1970 O   0  0  0  0  0  0  0  0  0  0  0  0
   -1.2155   -2.3062    1.8097 N   0  0  0  0  0  0  0  0  0  0  0  0
   -1.2824   -3.3239    2.8360 C   0  0  0  0  0  0  0  0  0  0  0  0
   -0.1939    1.2818    1.4851 N   0  0  0  0  0  4  0  0  0  0  0  0
    2.3578    0.7047   -0.6497 C   0  0  0  0  0  0  0  0  0  0  0  0
    3.7259    0.8529   -0.4154 C   0  0  0  0  0  0  0  0  0  0  0  0
    8.9722   -0.9642    0.5617 C   0  0  0  0  0  0  0  0  0  0  0  0
   10.2941   -0.5154    0.5824 C   0  0  0  0  0  0  0  0  0  0  0  0
   11.6576    0.9920    1.2950 H   0  0  0  0  0  0  0  0  0  0  0  0
    9.9009    2.2643    2.4979 H   0  0  0  0  0  0  0  0  0  0  0  0
    7.5568    1.4814    2.4653 H   0  0  0  0  0  0  0  0  0  0  0  0
    6.2057   -0.8490    2.2722 H   0  0  0  0  0  0  0  0  0  0  0  0
    6.4759   -1.7115    0.7298 H   0  0  0  0  0  0  0  0  0  0  0  0
    4.2198   -1.8442    1.6000 H   0  0  0  0  0  0  0  0  0  0  0  0
    1.8478   -2.1188    1.1951 H   0  0  0  0  0  0  0  0  0  0  0  0
   -0.1303    0.1353   -1.1317 H   0  0  0  0  0  0  0  0  0  0  0  0
   -0.0687   -1.5101   -0.5520 H   0  0  0  0  0  0  0  0  0  0  0  0
   -1.7226    0.1272    0.6383 H   0  0  0  0  0  0  0  0  0  0  0  0
   -1.6007   -2.5444    0.9025 H   0  0  0  0  0  0  0  0  0  0  0  0
   -2.0021   -3.0118    3.5977 H   0  0  0  0  0  0  0  0  0  0  0  0
   -1.6044   -4.2626    2.3787 H   0  0  0  0  0  0  0  0  0  0  0  0
   -0.2967   -3.4479    3.2930 H   0  0  0  0  0  0  0  0  0  0  0  0
    0.7903    1.1854    1.7831 H   0  0  0  0  0  0  0  0  0  0  0  0
   -0.6995    1.5002    2.3565 H   0  0  0  0  0  0  0  0  0  0  0  0
   -0.2677    2.0661    0.8311 H   0  0  0  0  0  0  0  0  0  0  0  0
    1.8682    1.4184   -1.3098 H   0  0  0  0  0  0  0  0  0  0  0  0
    4.2714    1.6724   -0.8817 H   0  0  0  0  0  0  0  0  0  0  0  0
    8.7330   -1.8685    0.0068 H   0  0  0  0  0  0  0  0  0  0  0  0
   11.0651   -1.0690    0.0509 H   0  0  0  0  0  0  0  0  0  0  0  0
 22  1  1  0
  1  2  2  0
  2 23  1  0
  2  3  1  0
  3 24  1  0
  3  4  2  0
  4  5  1  0
  5 25  1  0
  5 26  1  0
  5  6  1  0
  6  7  1  0
  7  8  2  0
  8 27  1  0
  8  9  1  0
  9 28  1  0
  9 10  2  0
 10 11  1  0
 11 29  1  0
 11 30  1  0
 11 12  1  0
 12 31  1  6
 12 13  1  0
 13 14  2  0
 13 15  1  0
 15 32  1  0
 15 16  1  0
 16 33  1  0
 16 34  1  0
 16 35  1  0
 12 17  1  0
 17 36  1  0
 17 37  1  0
 17 38  1  0
 10 18  1  0
 18 39  1  0
  7 19  1  0
 18 19  2  0
 19 40  1  0
  4 20  1  0
 20 41  1  0
  1 21  1  0
 20 21  2  0
 21 42  1  0
M  CHG  1  17   1
M  END
>  <conformer_energy>  (1) 
66.06

>  <ligand_smiles>  (1) 
CNC(=O)[C@@H]([NH3+])Cc1ccc(OCc2ccccc2)cc1

>  <ligand_conf_name>  (1) 
MOL_0_isomer_0_conf_0

>  <ligand_molecule_name>  (1) 
MOL_0_isomer_0

$$$$
