MOL_0_isomer_0_conf_0
     RDKit          3D

 41 42  0  0  0  0  0  0  0  0999 V2000
   -5.0050   -0.0353    1.9749 O   0  0  0  0  0  0  0  0  0  0  0  0
   -4.4717    0.2171    0.6828 C   0  0  0  0  0  0  0  0  0  0  0  0
   -3.0670   -0.3878    0.4978 C   0  0  1  0  0  0  0  0  0  0  0  0
   -2.6885   -0.2794   -0.8766 O   0  0  0  0  0  0  0  0  0  0  0  0
   -2.0258    0.3227    1.3953 C   0  0  1  0  0  0  0  0  0  0  0  0
   -2.4710    0.2690    2.7668 O   0  0  0  0  0  0  0  0  0  0  0  0
   -0.6081   -0.2884    1.3481 C   0  0  1  0  0  0  0  0  0  0  0  0
   -0.7114   -1.6206    1.8889 O   0  0  0  0  0  0  0  0  0  0  0  0
    0.0387   -0.2676   -0.0507 C   0  0  0  0  0  0  0  0  0  0  0  0
    1.5203   -0.2565    0.0533 N   0  0  0  0  0  0  0  0  0  0  0  0
    2.1831   -1.4662    0.2658 C   0  0  0  0  0  0  0  0  0  0  0  0
    1.5728   -2.5873    0.5022 N   0  0  0  0  0  0  0  0  0  0  0  0
    2.2497   -3.7607    0.6939 C   0  0  0  0  0  0  0  0  0  0  0  0
    1.6571   -4.8027    0.9518 O   0  0  0  0  0  0  0  0  0  0  0  0
    3.6110   -3.7934    0.6017 N   0  0  0  0  0  0  0  0  0  0  0  0
    4.4313   -2.7320    0.3685 C   0  0  0  0  0  0  0  0  0  0  0  0
    5.6446   -2.8202    0.2831 O   0  0  0  0  0  0  0  0  0  0  0  0
    3.6921   -1.4297    0.2283 C   0  0  0  0  0  0  0  0  0  0  0  0
    4.3558   -0.3205    0.0882 N   0  0  0  0  0  0  0  0  0  0  0  0
    3.6495    0.8591   -0.0351 C   0  0  0  0  0  0  0  0  0  0  0  0
    4.5421    2.0680   -0.1802 C   0  0  0  0  0  0  0  0  0  0  0  0
    2.2916    0.9244   -0.0536 C   0  0  0  0  0  0  0  0  0  0  0  0
    1.5658    2.2490   -0.1534 C   0  0  0  0  0  0  0  0  0  0  0  0
   -4.3170    0.2462    2.6163 H   0  0  0  0  0  0  0  0  0  0  0  0
   -4.4557    1.2991    0.5104 H   0  0  0  0  0  0  0  0  0  0  0  0
   -5.1631   -0.2061   -0.0538 H   0  0  0  0  0  0  0  0  0  0  0  0
   -3.1081   -1.4503    0.7662 H   0  0  0  0  0  0  0  0  0  0  0  0
   -3.3320   -0.8045   -1.3887 H   0  0  0  0  0  0  0  0  0  0  0  0
   -1.9616    1.3798    1.1108 H   0  0  0  0  0  0  0  0  0  0  0  0
   -2.1459   -0.5978    3.0987 H   0  0  0  0  0  0  0  0  0  0  0  0
    0.0200    0.2650    2.0573 H   0  0  0  0  0  0  0  0  0  0  0  0
    0.0371   -2.1460    1.5338 H   0  0  0  0  0  0  0  0  0  0  0  0
   -0.2679   -1.1471   -0.6303 H   0  0  0  0  0  0  0  0  0  0  0  0
   -0.2963    0.6060   -0.6176 H   0  0  0  0  0  0  0  0  0  0  0  0
    4.0437   -4.6952    0.7308 H   0  0  0  0  0  0  0  0  0  0  0  0
    5.5571    1.7734   -0.4711 H   0  0  0  0  0  0  0  0  0  0  0  0
    4.1831    2.7469   -0.9600 H   0  0  0  0  0  0  0  0  0  0  0  0
    4.6103    2.6069    0.7700 H   0  0  0  0  0  0  0  0  0  0  0  0
    0.7867    2.3209    0.6130 H   0  0  0  0  0  0  0  0  0  0  0  0
    2.2144    3.1149    0.0034 H   0  0  0  0  0  0  0  0  0  0  0  0
    1.1040    2.3554   -1.1403 H   0  0  0  0  0  0  0  0  0  0  0  0
 24  1  1  0
  1  2  1  0
  2 25  1  0
  2 26  1  0
  2  3  1  0
  3 27  1  1
  3  4  1  0
  4 28  1  0
  3  5  1  0
  5 29  1  6
  5  6  1  0
  6 30  1  0
  5  7  1  0
  7 31  1  1
  7  8  1  0
  8 32  1  0
  7  9  1  0
  9 33  1  0
  9 34  1  0
  9 10  1  0
 10 11  1  0
 11 12  2  0
 12 13  1  0
 13 14  2  0
 13 15  1  0
 15 35  1  0
 15 16  1  0
 16 17  2  0
 11 18  1  0
 16 18  1  0
 18 19  2  0
 19 20  1  0
 20 21  1  0
 21 36  1  0
 21 37  1  0
 21 38  1  0
 10 22  1  0
 20 22  2  0
 22 23  1  0
 23 39  1  0
 23 40  1  0
 23 41  1  0
M  END
>  <conformer_energy>  (1) 
55.29

>  <ligand_smiles>  (1) 
Cc1nc2c(=O)[nH]c(=O)nc-2n(C[C@H](O)[C@H](O)[C@H](O)CO)c1C

>  <ligand_conf_name>  (1) 
MOL_0_isomer_0_conf_0

>  <ligand_molecule_name>  (1) 
MOL_0_isomer_0

$$$$
