MOL_0_isomer_0_conf_0
     RDKit          3D

 23 23  0  0  0  0  0  0  0  0999 V2000
   -0.0564    0.2993    1.9857 O   0  0  0  0  0  0  0  0  0  0  0  0
    0.3636   -0.1103    0.6917 C   0  0  0  0  0  0  0  0  0  0  0  0
    1.8635    0.1453    0.4489 C   0  0  1  0  0  0  0  0  0  0  0  0
    2.2540   -0.2759   -0.8730 O   0  0  0  0  0  0  0  0  0  0  0  0
    1.7832    0.5804   -1.9075 C   0  0  2  0  0  0  0  0  0  0  0  0
    2.2917    0.0828   -3.0714 F   0  0  0  0  0  0  0  0  0  0  0  0
    2.3128    2.0093   -1.7498 C   0  0  2  0  0  0  0  0  0  0  0  0
    3.7501    2.0183   -1.8597 O   0  0  0  0  0  0  0  0  0  0  0  0
    1.9122    2.5653   -0.3789 C   0  0  1  0  0  0  0  0  0  0  0  0
    0.5027    2.8001   -0.3306 O   0  0  0  0  0  0  0  0  0  0  0  0
    2.3251    1.5908    0.7389 C   0  0  2  0  0  0  0  0  0  0  0  0
    3.7547    1.6124    0.8837 O   0  0  0  0  0  0  0  0  0  0  0  0
   -0.2881    1.2442    1.9290 H   0  0  0  0  0  0  0  0  0  0  0  0
    0.1677   -1.1846    0.5990 H   0  0  0  0  0  0  0  0  0  0  0  0
   -0.2795    0.3715   -0.0496 H   0  0  0  0  0  0  0  0  0  0  0  0
    2.4147   -0.5085    1.1369 H   0  0  0  0  0  0  0  0  0  0  0  0
    0.6934    0.5428   -1.9852 H   0  0  0  0  0  0  0  0  0  0  0  0
    1.9202    2.6338   -2.5593 H   0  0  0  0  0  0  0  0  0  0  0  0
    3.9697    1.3999   -2.5874 H   0  0  0  0  0  0  0  0  0  0  0  0
    2.4250    3.5209   -0.2107 H   0  0  0  0  0  0  0  0  0  0  0  0
    0.3511    3.6978   -0.6832 H   0  0  0  0  0  0  0  0  0  0  0  0
    1.9166    1.9271    1.6973 H   0  0  0  0  0  0  0  0  0  0  0  0
    4.1413    1.4997   -0.0104 H   0  0  0  0  0  0  0  0  0  0  0  0
 13  1  1  0
  1  2  1  0
  2 14  1  0
  2 15  1  0
  2  3  1  0
  3 16  1  1
  3  4  1  0
  4  5  1  0
  5 17  1  6
  5  6  1  0
  5  7  1  0
  7 18  1  6
  7  8  1  0
  8 19  1  0
  7  9  1  0
  9 20  1  1
  9 10  1  0
 10 21  1  0
  3 11  1  0
  9 11  1  0
 11 22  1  1
 11 12  1  0
 12 23  1  0
M  END
>  <conformer_energy>  (1) 
106.96

>  <ligand_smiles>  (1) 
OC[C@H]1O[C@H](F)[C@H](O)[C@@H](O)[C@@H]1O

>  <ligand_conf_name>  (1) 
MOL_0_isomer_0_conf_0

>  <ligand_molecule_name>  (1) 
MOL_0_isomer_0

$$$$
