MOL_0_isomer_0_conf_0
     RDKit          3D

 20 21  0  0  0  0  0  0  0  0999 V2000
    2.0265    0.2912    1.2019 C   0  0  0  0  0  0  0  0  0  0  0  0
    3.3506    0.3511    1.4654 C   0  0  0  0  0  0  0  0  0  0  0  0
    3.9608    0.4746    2.5644 O   0  0  0  0  0  1  0  0  0  0  0  0
    4.3007    0.2632    0.2776 C   0  0  0  0  0  0  0  0  0  0  0  0
    3.7063   -0.4459   -0.9502 C   0  0  0  0  0  0  0  0  0  0  0  0
    2.2371   -0.2179   -1.1383 C   0  0  0  0  0  0  0  0  0  0  0  0
    1.4262    0.1548   -0.1321 C   0  0  0  0  0  0  0  0  0  0  0  0
    0.0642    0.3879   -0.2176 N   0  0  0  0  0  0  0  0  0  0  0  0
   -0.8538    0.3039   -1.2545 C   0  0  0  0  0  0  0  0  0  0  0  0
   -0.6535   -0.0715   -2.5414 N   0  0  0  0  0  0  0  0  0  0  0  0
   -1.8688    0.0137   -3.1364 N   0  0  0  0  0  0  0  0  0  0  0  0
   -2.7763    0.4281   -2.2307 N   0  0  0  0  0  0  0  0  0  0  0  0
   -2.1590    0.6159   -1.0399 N   0  0  0  0  0  2  0  0  0  0  0  0
    1.3456    0.3468    2.0463 H   0  0  0  0  0  0  0  0  0  0  0  0
    5.2322   -0.2602    0.5381 H   0  0  0  0  0  0  0  0  0  0  0  0
    4.5895    1.2849   -0.0105 H   0  0  0  0  0  0  0  0  0  0  0  0
    4.2424   -0.1048   -1.8438 H   0  0  0  0  0  0  0  0  0  0  0  0
    3.8788   -1.5267   -0.8744 H   0  0  0  0  0  0  0  0  0  0  0  0
    1.8418   -0.3736   -2.1351 H   0  0  0  0  0  0  0  0  0  0  0  0
   -0.3352    0.6965    0.6547 H   0  0  0  0  0  0  0  0  0  0  0  0
 14  1  1  0
  1  2  2  0
  2  3  1  0
  2  4  1  0
  4 15  1  0
  4 16  1  0
  4  5  1  0
  5 17  1  0
  5 18  1  0
  5  6  1  0
  6 19  1  0
  1  7  1  0
  6  7  2  0
  7  8  1  0
  8 20  1  0
  8  9  1  0
  9 10  2  0
 10 11  1  0
 11 12  2  0
  9 13  1  0
 12 13  1  0
M  CHG  2   3  -1  13  -1
M  END
>  <conformer_energy>  (1) 
0.00

>  <ligand_smiles>  (1) 
[O-]C1=CC(Nc2nnn[n-]2)=CCC1

>  <ligand_conf_name>  (1) 
MOL_0_isomer_0_conf_0

>  <ligand_molecule_name>  (1) 
MOL_0_isomer_0

$$$$
