MOL_0_isomer_0_conf_0
     RDKit          3D

 27 27  0  0  0  0  0  0  0  0999 V2000
    4.2423   -2.6205    0.2257 O   0  0  0  0  0  0  0  0  0  0  0  0
    2.9878   -2.0523   -0.1210 C   0  0  0  0  0  0  0  0  0  0  0  0
    3.1303   -0.8470   -1.0692 C   0  0  1  0  0  0  0  0  0  0  0  0
    1.9116   -0.0818   -1.1724 O   0  0  0  0  0  0  0  0  0  0  0  0
    1.5781    0.6424    0.0146 C   0  0  2  0  0  0  0  0  0  0  0  0
    0.4146    1.4554   -0.2073 O   0  0  0  0  0  0  0  0  0  0  0  0
   -0.7412    0.6698   -0.4699 C   0  0  0  0  0  0  0  0  0  0  0  0
    2.7027    1.6102    0.4419 C   0  0  1  0  0  0  0  0  0  0  0  0
    2.4130    2.1807    1.7318 O   0  0  0  0  0  0  0  0  0  0  0  0
    4.0559    0.8978    0.5092 C   0  0  1  0  0  0  0  0  0  0  0  0
    4.0946    0.0304    1.6529 O   0  0  0  0  0  0  0  0  0  0  0  0
    4.3043    0.1056   -0.7749 C   0  0  2  0  0  0  0  0  0  0  0  0
    4.4512    1.0320   -1.8661 O   0  0  0  0  0  0  0  0  0  0  0  0
    4.6031   -2.0642    0.9463 H   0  0  0  0  0  0  0  0  0  0  0  0
    2.3904   -2.8250   -0.6182 H   0  0  0  0  0  0  0  0  0  0  0  0
    2.4509   -1.8203    0.8020 H   0  0  0  0  0  0  0  0  0  0  0  0
    3.2999   -1.2528   -2.0750 H   0  0  0  0  0  0  0  0  0  0  0  0
    1.3409   -0.0417    0.8368 H   0  0  0  0  0  0  0  0  0  0  0  0
   -1.5941    1.3449   -0.5808 H   0  0  0  0  0  0  0  0  0  0  0  0
   -0.9434   -0.0100    0.3634 H   0  0  0  0  0  0  0  0  0  0  0  0
   -0.6260    0.1057   -1.4000 H   0  0  0  0  0  0  0  0  0  0  0  0
    2.7624    2.4396   -0.2738 H   0  0  0  0  0  0  0  0  0  0  0  0
    1.5338    2.5985    1.6321 H   0  0  0  0  0  0  0  0  0  0  0  0
    4.8451    1.6453    0.6538 H   0  0  0  0  0  0  0  0  0  0  0  0
    3.8153    0.6037    2.3993 H   0  0  0  0  0  0  0  0  0  0  0  0
    5.2421   -0.4543   -0.7010 H   0  0  0  0  0  0  0  0  0  0  0  0
    3.5885    1.0961   -2.3201 H   0  0  0  0  0  0  0  0  0  0  0  0
 14  1  1  0
  1  2  1  0
  2 15  1  0
  2 16  1  0
  2  3  1  0
  3 17  1  6
  3  4  1  0
  4  5  1  0
  5 18  1  1
  5  6  1  0
  6  7  1  0
  7 19  1  0
  7 20  1  0
  7 21  1  0
  5  8  1  0
  8 22  1  6
  8  9  1  0
  9 23  1  0
  8 10  1  0
 10 24  1  1
 10 11  1  0
 11 25  1  0
  3 12  1  0
 10 12  1  0
 12 26  1  1
 12 13  1  0
 13 27  1  0
M  END
>  <conformer_energy>  (1) 
99.56

>  <ligand_smiles>  (1) 
CO[C@H]1O[C@H](CO)[C@@H](O)[C@H](O)[C@@H]1O

>  <ligand_conf_name>  (1) 
MOL_0_isomer_0_conf_0

>  <ligand_molecule_name>  (1) 
MOL_0_isomer_0

$$$$
