MOL_0_isomer_0_conf_0
     RDKit          3D

 24 25  0  0  0  0  0  0  0  0999 V2000
    2.9352   -1.2016    0.2733 C   0  0  0  0  0  0  0  0  0  0  0  0
    4.0964   -0.5326    0.0495 O   0  0  0  0  0  0  0  0  0  0  0  0
    3.7973    0.7954    0.0902 C   0  0  0  0  0  0  0  0  0  0  0  0
    4.7062    1.8373   -0.0827 C   0  0  0  0  0  0  0  0  0  0  0  0
    4.2055    3.1425    0.0082 C   0  0  0  0  0  0  0  0  0  0  0  0
    5.1525    4.1204   -0.1667 O   0  0  0  0  0  0  0  0  0  0  0  0
    4.7224    5.4629    0.0164 C   0  0  0  0  0  0  0  0  0  0  0  0
    2.8465    3.3642    0.2569 C   0  0  0  0  0  0  0  0  0  0  0  0
    1.9540    2.2916    0.4197 C   0  0  0  0  0  0  0  0  0  0  0  0
    2.4423    0.9767    0.3317 C   0  0  0  0  0  0  0  0  0  0  0  0
    1.8762   -0.3297    0.4341 C   0  0  0  0  0  0  0  0  0  0  0  0
    0.4443   -0.6889    0.6502 C   0  0  0  0  0  0  0  0  0  0  0  0
   -0.0325   -0.3254    2.0570 C   0  0  0  0  0  0  0  0  0  0  0  0
    0.1659   -1.2068    2.9428 O   0  0  0  0  0  0  0  0  0  0  0  0
   -0.6149    0.7949    2.1587 O   0  0  0  0  0  1  0  0  0  0  0  0
    3.0115   -2.2793    0.2860 H   0  0  0  0  0  0  0  0  0  0  0  0
    5.7534    1.6382   -0.2684 H   0  0  0  0  0  0  0  0  0  0  0  0
    5.5935    6.1127   -0.1122 H   0  0  0  0  0  0  0  0  0  0  0  0
    4.3366    5.6221    1.0289 H   0  0  0  0  0  0  0  0  0  0  0  0
    3.9831    5.7465   -0.7399 H   0  0  0  0  0  0  0  0  0  0  0  0
    2.4332    4.3637    0.3406 H   0  0  0  0  0  0  0  0  0  0  0  0
    0.9022    2.4678    0.6358 H   0  0  0  0  0  0  0  0  0  0  0  0
   -0.1787   -0.1749   -0.0923 H   0  0  0  0  0  0  0  0  0  0  0  0
    0.2925   -1.7636    0.4901 H   0  0  0  0  0  0  0  0  0  0  0  0
 16  1  1  0
  1  2  1  0
  2  3  1  0
  3  4  2  0
  4 17  1  0
  4  5  1  0
  5  6  1  0
  6  7  1  0
  7 18  1  0
  7 19  1  0
  7 20  1  0
  5  8  2  0
  8 21  1  0
  8  9  1  0
  9 22  1  0
  3 10  1  0
  9 10  2  0
  1 11  2  0
 10 11  1  0
 11 12  1  0
 12 23  1  0
 12 24  1  0
 12 13  1  0
 13 14  2  0
 13 15  1  0
M  CHG  1  15  -1
M  END
>  <conformer_energy>  (1) 
44.93

>  <ligand_smiles>  (1) 
COc1ccc2c(CC(=O)[O-])coc2c1

>  <ligand_conf_name>  (1) 
MOL_0_isomer_0_conf_0

>  <ligand_molecule_name>  (1) 
MOL_0_isomer_0

$$$$
