MOL_0_isomer_0_conf_0
     RDKit          3D

 87 89  0  0  0  0  0  0  0  0999 V2000
    3.2792   -5.6105   -1.7447 O   0  0  0  0  0  0  0  0  0  0  0  0
    3.3295   -4.5433   -2.6852 C   0  0  0  0  0  0  0  0  0  0  0  0
    4.0052   -3.3233   -2.0351 C   0  0  1  0  0  0  0  0  0  0  0  0
    3.0884   -2.7523   -1.0776 O   0  0  0  0  0  0  0  0  0  0  0  0
    3.5549   -1.6291   -0.3416 C   0  0  2  0  0  0  0  0  0  0  0  0
    3.5699   -0.4222   -1.1426 O   0  0  0  0  0  0  0  0  0  0  0  0
    2.2594   -0.0041   -1.6033 C   0  0  2  0  0  0  0  0  0  0  0  0
    2.4168    0.9468   -2.8319 C   0  0  1  0  0  0  0  0  0  0  0  0
    1.1302    1.1094   -3.4678 O   0  0  0  0  0  0  0  0  0  0  0  0
    2.9267    2.3723   -2.4862 C   0  0  2  0  0  0  0  0  0  0  0  0
    4.2788    2.4119   -1.9901 O   0  0  0  0  0  0  0  0  0  0  0  0
    5.2902    2.4614   -3.0231 C   0  0  1  0  0  0  0  0  0  0  0  0
    6.0386    3.6915   -2.9523 O   0  0  0  0  0  0  0  0  0  0  0  0
    6.8840    3.8132   -1.7902 C   0  0  2  0  0  0  0  0  0  0  0  0
    7.7794    5.0753   -1.9279 C   0  0  0  0  0  0  0  0  0  0  0  0
    6.9757    6.2625   -2.3192 N   0  0  0  0  0  4  0  0  0  0  0  0
    7.8081    2.5976   -1.5776 C   0  0  1  0  0  0  0  0  0  0  0  0
    8.4546    2.7289   -0.3159 O   0  0  0  0  0  0  0  0  0  0  0  0
    7.0271    1.2854   -1.6245 C   0  0  2  0  0  0  0  0  0  0  0  0
    7.9311    0.1653   -1.5192 O   0  0  0  0  0  0  0  0  0  0  0  0
    6.2176    1.2322   -2.9217 C   0  0  1  0  0  0  0  0  0  0  0  0
    5.4655    0.0213   -2.9773 O   0  0  0  0  0  0  0  0  0  0  0  0
    1.9688    3.0093   -1.4454 C   0  0  1  0  0  0  0  0  0  0  0  0
    0.6495    3.3059   -2.0728 N   0  0  0  0  0  4  0  0  0  0  0  0
    1.7941    2.1249   -0.2086 C   0  0  0  0  0  0  0  0  0  0  0  0
    1.4084    0.6541   -0.4671 C   0  0  1  0  0  0  0  0  0  0  0  0
   -0.0239    0.3074   -0.5997 N   0  0  0  0  0  0  0  0  0  0  0  0
   -1.1471    1.1053   -0.5252 C   0  0  0  0  0  0  0  0  0  0  0  0
   -1.0992    2.3329   -0.4815 O   0  0  0  0  0  0  0  0  0  0  0  0
   -2.4844    0.3101   -0.6015 C   0  0  1  0  0  0  0  0  0  0  0  0
   -2.3914   -0.9364    0.0703 O   0  0  0  0  0  0  0  0  0  0  0  0
   -3.6984    1.0802   -0.0525 C   0  0  0  0  0  0  0  0  0  0  0  0
   -3.7491    1.1185    1.4744 C   0  0  0  0  0  0  0  0  0  0  0  0
   -4.9895    1.8042    1.9236 N   0  0  0  0  0  4  0  0  0  0  0  0
    4.9360   -1.8983    0.3175 C   0  0  2  0  0  0  0  0  0  0  0  0
    5.4934   -0.7234    0.9140 O   0  0  0  0  0  0  0  0  0  0  0  0
    5.9015   -2.4544   -0.7269 C   0  0  1  0  0  0  0  0  0  0  0  0
    7.2483   -2.7329   -0.1330 N   0  0  0  0  0  4  0  0  0  0  0  0
    5.3310   -3.7190   -1.3543 C   0  0  2  0  0  0  0  0  0  0  0  0
    6.3064   -4.2333   -2.2632 O   0  0  0  0  0  0  0  0  0  0  0  0
    2.7940   -6.3474   -2.1656 H   0  0  0  0  0  0  0  0  0  0  0  0
    3.8930   -4.8801   -3.5618 H   0  0  0  0  0  0  0  0  0  0  0  0
    2.3036   -4.3067   -2.9866 H   0  0  0  0  0  0  0  0  0  0  0  0
    4.1806   -2.5839   -2.8272 H   0  0  0  0  0  0  0  0  0  0  0  0
    2.8531   -1.4744    0.4822 H   0  0  0  0  0  0  0  0  0  0  0  0
    1.7312   -0.8967   -1.9620 H   0  0  0  0  0  0  0  0  0  0  0  0
    3.0894    0.4949   -3.5679 H   0  0  0  0  0  0  0  0  0  0  0  0
    1.0409    0.3734   -4.1176 H   0  0  0  0  0  0  0  0  0  0  0  0
    2.8681    3.0018   -3.3834 H   0  0  0  0  0  0  0  0  0  0  0  0
    4.8111    2.4425   -4.0095 H   0  0  0  0  0  0  0  0  0  0  0  0
    6.2331    3.9515   -0.9142 H   0  0  0  0  0  0  0  0  0  0  0  0
    8.2914    5.3273   -0.9938 H   0  0  0  0  0  0  0  0  0  0  0  0
    8.5181    4.9476   -2.7291 H   0  0  0  0  0  0  0  0  0  0  0  0
    6.4614    6.0739   -3.1913 H   0  0  0  0  0  0  0  0  0  0  0  0
    7.5847    7.0747   -2.5002 H   0  0  0  0  0  0  0  0  0  0  0  0
    6.3050    6.5431   -1.5968 H   0  0  0  0  0  0  0  0  0  0  0  0
    8.5912    2.5752   -2.3458 H   0  0  0  0  0  0  0  0  0  0  0  0
    9.0149    1.9359   -0.1883 H   0  0  0  0  0  0  0  0  0  0  0  0
    6.3693    1.2024   -0.7519 H   0  0  0  0  0  0  0  0  0  0  0  0
    8.4029    0.0733   -2.3764 H   0  0  0  0  0  0  0  0  0  0  0  0
    6.9067    1.2159   -3.7725 H   0  0  0  0  0  0  0  0  0  0  0  0
    4.9125    0.0064   -2.1683 H   0  0  0  0  0  0  0  0  0  0  0  0
    2.3642    3.9775   -1.1170 H   0  0  0  0  0  0  0  0  0  0  0  0
    0.3860    2.5437   -2.7316 H   0  0  0  0  0  0  0  0  0  0  0  0
   -0.1222    3.3204   -1.3730 H   0  0  0  0  0  0  0  0  0  0  0  0
    0.6124    4.1838   -2.6085 H   0  0  0  0  0  0  0  0  0  0  0  0
    1.1109    2.5899    0.5098 H   0  0  0  0  0  0  0  0  0  0  0  0
    2.7675    2.1077    0.3033 H   0  0  0  0  0  0  0  0  0  0  0  0
    1.6552    0.1573    0.4769 H   0  0  0  0  0  0  0  0  0  0  0  0
   -0.2300   -0.6917   -0.5387 H   0  0  0  0  0  0  0  0  0  0  0  0
   -2.6543    0.1156   -1.6691 H   0  0  0  0  0  0  0  0  0  0  0  0
   -2.2551   -1.6529   -0.5899 H   0  0  0  0  0  0  0  0  0  0  0  0
   -3.7247    2.0989   -0.4598 H   0  0  0  0  0  0  0  0  0  0  0  0
   -4.6040    0.5726   -0.4091 H   0  0  0  0  0  0  0  0  0  0  0  0
   -3.7809    0.1197    1.9195 H   0  0  0  0  0  0  0  0  0  0  0  0
   -2.9074    1.6756    1.8990 H   0  0  0  0  0  0  0  0  0  0  0  0
   -5.8395    1.3588    1.5489 H   0  0  0  0  0  0  0  0  0  0  0  0
   -5.0240    2.7967    1.6620 H   0  0  0  0  0  0  0  0  0  0  0  0
   -5.0864    1.7637    2.9489 H   0  0  0  0  0  0  0  0  0  0  0  0
    4.8145   -2.6516    1.1078 H   0  0  0  0  0  0  0  0  0  0  0  0
    5.0700   -0.5924    1.7849 H   0  0  0  0  0  0  0  0  0  0  0  0
    6.1225   -1.7215   -1.5015 H   0  0  0  0  0  0  0  0  0  0  0  0
    7.8084   -3.2615   -0.8279 H   0  0  0  0  0  0  0  0  0  0  0  0
    7.7422   -1.8444    0.0347 H   0  0  0  0  0  0  0  0  0  0  0  0
    7.2385   -3.2770    0.7362 H   0  0  0  0  0  0  0  0  0  0  0  0
    5.1674   -4.4653   -0.5658 H   0  0  0  0  0  0  0  0  0  0  0  0
    6.0498   -5.1546   -2.4709 H   0  0  0  0  0  0  0  0  0  0  0  0
 41  1  1  0
  1  2  1  0
  2 42  1  0
  2 43  1  0
  2  3  1  0
  3 44  1  6
  3  4  1  0
  4  5  1  0
  5 45  1  1
  5  6  1  0
  6  7  1  0
  7 46  1  6
  7  8  1  0
  8 47  1  6
  8  9  1  0
  9 48  1  0
  8 10  1  0
 10 49  1  6
 10 11  1  0
 11 12  1  0
 12 50  1  6
 12 13  1  0
 13 14  1  0
 14 51  1  1
 14 15  1  0
 15 52  1  0
 15 53  1  0
 15 16  1  0
 16 54  1  0
 16 55  1  0
 16 56  1  0
 14 17  1  0
 17 57  1  6
 17 18  1  0
 18 58  1  0
 17 19  1  0
 19 59  1  1
 19 20  1  0
 20 60  1  0
 12 21  1  0
 19 21  1  0
 21 61  1  6
 21 22  1  0
 22 62  1  0
 10 23  1  0
 23 63  1  1
 23 24  1  0
 24 64  1  0
 24 65  1  0
 24 66  1  0
 23 25  1  0
 25 67  1  0
 25 68  1  0
  7 26  1  0
 25 26  1  0
 26 69  1  1
 26 27  1  0
 27 70  1  0
 27 28  1  0
 28 29  2  0
 28 30  1  0
 30 71  1  6
 30 31  1  0
 31 72  1  0
 30 32  1  0
 32 73  1  0
 32 74  1  0
 32 33  1  0
 33 75  1  0
 33 76  1  0
 33 34  1  0
 34 77  1  0
 34 78  1  0
 34 79  1  0
  5 35  1  0
 35 80  1  1
 35 36  1  0
 36 81  1  0
 35 37  1  0
 37 82  1  6
 37 38  1  0
 38 83  1  0
 38 84  1  0
 38 85  1  0
  3 39  1  0
 37 39  1  0
 39 86  1  1
 39 40  1  0
 40 87  1  0
M  CHG  4  16   1  24   1  34   1  38   1
M  END
>  <conformer_energy>  (1) 
451.77

>  <ligand_smiles>  (1) 
[NH3+]CC[C@H](O)C(=O)N[C@@H]1C[C@H]([NH3+])[C@@H](O[C@H]2O[C@H](C[NH3+])[C@@H](O)[C@H](O)[C@H]2O)[C@H](O)[C@H]1O[C@H]1O[C@H](CO)[C@@H](O)[C@H]([NH3+])[C@H]1O

>  <ligand_conf_name>  (1) 
MOL_0_isomer_0_conf_0

>  <ligand_molecule_name>  (1) 
MOL_0_isomer_0

$$$$
