MOL_0_isomer_0_conf_0
     RDKit          3D

 28 29  0  0  0  0  0  0  0  0999 V2000
    6.7727    3.8915    0.7850 C   0  0  0  0  0  0  0  0  0  0  0  0
    5.9083    3.5875    1.8381 C   0  0  0  0  0  0  0  0  0  0  0  0
    5.4370    2.2852    2.0011 C   0  0  0  0  0  0  0  0  0  0  0  0
    5.8315    1.2942    1.0971 C   0  0  0  0  0  0  0  0  0  0  0  0
    5.2344   -0.3601    1.3016 S   0  0  0  0  0  6  0  0  0  0  0  0
    6.0734   -1.2645    0.5379 O   0  0  0  0  0  0  0  0  0  0  0  0
    4.9276   -0.5813    2.7014 O   0  0  0  0  0  0  0  0  0  0  0  0
    3.7352   -0.3341    0.4942 N   0  0  0  0  0  0  0  0  0  0  0  0
    3.5762   -0.5459   -0.8496 C   0  0  0  0  0  0  0  0  0  0  0  0
    2.2520   -0.2958   -1.1472 C   0  0  0  0  0  0  0  0  0  0  0  0
    1.5989    0.1238    0.0540 C   0  0  0  0  0  0  0  0  0  0  0  0
    0.2038    0.5188    0.2603 C   0  0  0  0  0  0  0  0  0  0  0  0
   -0.1947    0.9052    1.3581 O   0  0  0  0  0  0  0  0  0  0  0  0
   -0.7367    0.4471   -0.9161 C   0  0  0  0  0  0  0  0  0  0  0  0
    2.5646    0.1041    1.0499 C   0  0  0  0  0  0  0  0  0  0  0  0
    6.7073    1.5898    0.0483 C   0  0  0  0  0  0  0  0  0  0  0  0
    7.1740    2.8950   -0.1065 C   0  0  0  0  0  0  0  0  0  0  0  0
    7.1414    4.9077    0.6635 H   0  0  0  0  0  0  0  0  0  0  0  0
    5.6074    4.3663    2.5353 H   0  0  0  0  0  0  0  0  0  0  0  0
    4.7732    2.0553    2.8322 H   0  0  0  0  0  0  0  0  0  0  0  0
    4.4018   -0.8680   -1.4723 H   0  0  0  0  0  0  0  0  0  0  0  0
    1.8084   -0.3935   -2.1310 H   0  0  0  0  0  0  0  0  0  0  0  0
   -0.4012    1.1260   -1.7045 H   0  0  0  0  0  0  0  0  0  0  0  0
   -1.7401    0.7486   -0.6009 H   0  0  0  0  0  0  0  0  0  0  0  0
   -0.7862   -0.5777   -1.2938 H   0  0  0  0  0  0  0  0  0  0  0  0
    2.4954    0.3546    2.1023 H   0  0  0  0  0  0  0  0  0  0  0  0
    7.0344    0.8179   -0.6450 H   0  0  0  0  0  0  0  0  0  0  0  0
    7.8562    3.1367   -0.9184 H   0  0  0  0  0  0  0  0  0  0  0  0
 18  1  1  0
  1  2  2  0
  2 19  1  0
  2  3  1  0
  3 20  1  0
  3  4  2  0
  4  5  1  0
  5  6  2  0
  5  7  2  0
  5  8  1  0
  8  9  1  0
  9 21  1  0
  9 10  2  0
 10 22  1  0
 10 11  1  0
 11 12  1  0
 12 13  2  0
 12 14  1  0
 14 23  1  0
 14 24  1  0
 14 25  1  0
  8 15  1  0
 11 15  2  0
 15 26  1  0
  4 16  1  0
 16 27  1  0
  1 17  1  0
 16 17  2  0
 17 28  1  0
M  END
>  <conformer_energy>  (1) 
131.33

>  <ligand_smiles>  (1) 
CC(=O)c1ccn(S(=O)(=O)c2ccccc2)c1

>  <ligand_conf_name>  (1) 
MOL_0_isomer_0_conf_0

>  <ligand_molecule_name>  (1) 
MOL_0_isomer_0

$$$$
