1VCJ - prepared_ligand_conf_0
     RDKit          3D

 52 53  0  0  0  0  0  0  0  0999 V2000
    3.5527   -3.1015    1.5667 O   0  0  0  0  0  0  0  0  0  0  0  0
    4.8140   -2.8181    0.9748 C   0  0  0  0  0  0  0  0  0  0  0  0
    5.1546   -1.3036    1.0471 C   0  0  1  0  0  0  0  0  0  0  0  0
    6.5594   -1.0344    0.4114 C   0  0  0  0  0  0  0  0  0  0  0  0
    6.6661    0.3283   -0.2034 N   0  0  0  0  0  0  0  0  0  0  0  0
    4.1234   -0.4064    0.4977 N   0  0  0  0  0  0  0  0  0  0  0  0
    3.4614   -0.5992   -0.7718 C   0  0  0  0  0  0  0  0  0  0  0  0
    4.1221   -1.3309   -1.7792 C   0  0  0  0  0  0  0  0  0  0  0  0
    3.5600   -1.5375   -3.0351 C   0  0  0  0  0  0  0  0  0  0  0  0
    2.2977   -1.0408   -3.3316 C   0  0  0  0  0  0  0  0  0  0  0  0
    1.6984   -1.2417   -4.7068 C   0  0  0  0  0  0  0  0  0  0  0  0
    0.5168   -0.8211   -4.8886 O   0  0  0  0  0  0  0  0  0  0  0  0
    2.4439   -1.8087   -5.5649 O   0  0  0  0  0  0  0  0  0  0  0  0
    1.6065   -0.3541   -2.3234 C   0  0  0  0  0  0  0  0  0  0  0  0
    2.1544   -0.1037   -1.0491 C   0  0  0  0  0  0  0  0  0  0  0  0
    1.3878    0.5091   -0.0649 N   0  0  0  0  0  0  0  0  0  0  0  0
   -0.0640    0.6729   -0.0950 C   0  0  0  0  0  0  0  0  0  0  0  0
   -0.6032    0.5307    1.3422 C   0  0  0  0  0  0  0  0  0  0  0  0
   -0.4478   -0.8861    1.8843 C   0  0  0  0  0  0  0  0  0  0  0  0
   -0.4469    2.0277   -0.7232 C   0  0  0  0  0  0  0  0  0  0  0  0
    0.0107    3.2607    0.0468 C   0  0  0  0  0  0  0  0  0  0  0  0
    3.9635    0.7243    1.3197 C   0  0  0  0  0  0  0  0  0  0  0  0
    3.3967    1.7751    1.0639 O   0  0  0  0  0  0  0  0  0  0  0  0
    4.7957    0.5577    2.5615 C   0  0  0  0  0  0  0  0  0  0  0  0
    5.1643   -0.9049    2.5417 C   0  0  0  0  0  0  0  0  0  0  0  0
    2.8536   -2.7254    0.9931 H   0  0  0  0  0  0  0  0  0  0  0  0
    5.5681   -3.3908    1.5271 H   0  0  0  0  0  0  0  0  0  0  0  0
    4.8055   -3.2166   -0.0418 H   0  0  0  0  0  0  0  0  0  0  0  0
    7.3738   -1.1191    1.1379 H   0  0  0  0  0  0  0  0  0  0  0  0
    6.7765   -1.7357   -0.3992 H   0  0  0  0  0  0  0  0  0  0  0  0
    5.8224    0.5413   -0.7680 H   0  0  0  0  0  0  0  0  0  0  0  0
    7.4648    0.4037   -0.8470 H   0  0  0  0  0  0  0  0  0  0  0  0
    6.7448    1.0900    0.4810 H   0  0  0  0  0  0  0  0  0  0  0  0
    5.1027   -1.7627   -1.6637 H   0  0  0  0  0  0  0  0  0  0  0  0
    4.1009   -2.0930   -3.8016 H   0  0  0  0  0  0  0  0  0  0  0  0
    0.6115    0.0055   -2.5815 H   0  0  0  0  0  0  0  0  0  0  0  0
    1.8881    1.1718    0.5255 H   0  0  0  0  0  0  0  0  0  0  0  0
   -0.5285   -0.1249   -0.6880 H   0  0  0  0  0  0  0  0  0  0  0  0
   -1.6677    0.7935    1.3609 H   0  0  0  0  0  0  0  0  0  0  0  0
   -0.0856    1.2176    2.0224 H   0  0  0  0  0  0  0  0  0  0  0  0
   -0.8811   -0.9541    2.8873 H   0  0  0  0  0  0  0  0  0  0  0  0
    0.6057   -1.1746    1.9546 H   0  0  0  0  0  0  0  0  0  0  0  0
   -0.9619   -1.6098    1.2439 H   0  0  0  0  0  0  0  0  0  0  0  0
   -0.0413    2.0934   -1.7395 H   0  0  0  0  0  0  0  0  0  0  0  0
   -1.5386    2.0717   -0.8239 H   0  0  0  0  0  0  0  0  0  0  0  0
   -0.2907    4.1659   -0.4908 H   0  0  0  0  0  0  0  0  0  0  0  0
   -0.4407    3.3058    1.0419 H   0  0  0  0  0  0  0  0  0  0  0  0
    1.0986    3.2877    0.1547 H   0  0  0  0  0  0  0  0  0  0  0  0
    4.2200    0.8241    3.4516 H   0  0  0  0  0  0  0  0  0  0  0  0
    5.6794    1.1983    2.4905 H   0  0  0  0  0  0  0  0  0  0  0  0
    6.1203   -1.0994    3.0390 H   0  0  0  0  0  0  0  0  0  0  0  0
    4.4007   -1.4488    3.1116 H   0  0  0  0  0  0  0  0  0  0  0  0
 26  1  1  0
  1  2  1  0
  2 27  1  0
  2 28  1  0
  3  2  1  1
  3  4  1  0
  4 29  1  0
  4 30  1  0
  4  5  1  0
  5 31  1  0
  5 32  1  0
  5 33  1  0
  3  6  1  0
  6  7  1  0
  7  8  2  0
  8 34  1  0
  8  9  1  0
  9 35  1  0
  9 10  2  0
 10 11  1  0
 11 12  2  0
 11 13  1  0
 10 14  1  0
 14 36  1  0
  7 15  1  0
 14 15  2  0
 15 16  1  0
 16 37  1  0
 16 17  1  0
 17 38  1  0
 17 18  1  0
 18 39  1  0
 18 40  1  0
 18 19  1  0
 19 41  1  0
 19 42  1  0
 19 43  1  0
 17 20  1  0
 20 44  1  0
 20 45  1  0
 20 21  1  0
 21 46  1  0
 21 47  1  0
 21 48  1  0
  6 22  1  0
 22 23  2  0
 22 24  1  0
 24 49  1  0
 24 50  1  0
  3 25  1  0
 24 25  1  0
 25 51  1  0
 25 52  1  0
M  CHG  2   5   1  13  -1
M  END
>  <conformer_energy>  (1) 
52.04

>  <ligand_smiles>  (1) 
CCC(CC)Nc1cc(C(=O)[O-])ccc1N1C(=O)CC[C@@]1(C[NH3+])CO

>  <ligand_conf_name>  (1) 
1VCJ - prepared_ligand_conf_0

>  <ligand_molecule_name>  (1) 
1VCJ - prepared_ligand

$$$$
