MOL_0_isomer_0_conf_0
     RDKit          3D

 38 40  0  0  0  0  0  0  0  0999 V2000
    3.0530   -0.4487   -0.5715 O   0  0  0  0  0  0  0  0  0  0  0  0
    2.0365    0.3558    0.0432 C   0  0  1  0  0  0  0  0  0  0  0  0
    2.6366    1.6964    0.3741 C   0  0  0  0  0  0  0  0  0  0  0  0
    2.4746    2.4191   -0.9437 C   0  0  2  0  0  0  0  0  0  0  0  0
    2.5387    3.8615   -0.8099 N   0  0  0  0  0  0  0  0  0  0  0  0
    1.4901    4.7081   -0.5441 C   0  0  0  0  0  0  0  0  0  0  0  0
    1.8761    5.9672   -0.4539 N   0  0  0  0  0  0  0  0  0  0  0  0
    3.2365    5.9250   -0.6801 C   0  0  0  0  0  0  0  0  0  0  0  0
    4.2147    6.9339   -0.7202 C   0  0  0  0  0  0  0  0  0  0  0  0
    3.9205    8.2663   -0.5202 N   0  0  0  0  0  0  0  0  0  0  0  0
    5.4998    6.5887   -0.9662 N   0  0  0  0  0  0  0  0  0  0  0  0
    5.7733    5.2782   -1.1602 C   0  0  0  0  0  0  0  0  0  0  0  0
    4.9293    4.2314   -1.1454 N   0  0  0  0  0  0  0  0  0  0  0  0
    3.6691    4.6277   -0.9010 C   0  0  0  0  0  0  0  0  0  0  0  0
    1.1801    2.0530   -1.4358 O   0  0  0  0  0  0  0  0  0  0  0  0
    0.9389    0.6748   -0.9833 C   0  0  2  0  0  0  0  0  0  0  0  0
   -0.4709    0.5759   -0.4075 C   0  0  0  0  0  0  0  0  0  0  0  0
   -1.3213    0.0213   -1.3998 O   0  0  0  0  0  0  0  0  0  0  0  0
   -2.2585   -1.2339   -0.9474 P   0  0  2  0  0  5  0  0  0  0  0  0
   -3.1355   -1.5330   -2.1618 O   0  0  0  0  0  0  0  0  0  0  0  0
   -2.9980   -0.8130    0.3128 O   0  0  0  0  0  1  0  0  0  0  0  0
   -1.2324   -2.4410   -0.7359 O   0  0  0  0  0  0  0  0  0  0  0  0
    0.1759   -2.7917   -0.0393 P   0  0  0  0  0  5  0  0  0  0  0  0
    1.2724   -2.2183   -0.9418 O   0  0  0  0  0  0  0  0  0  0  0  0
    0.2254   -4.3176    0.0096 O   0  0  0  0  0  1  0  0  0  0  0  0
    0.1982   -2.1477    1.3388 O   0  0  0  0  0  1  0  0  0  0  0  0
    2.5177   -1.2955   -0.7541 H   0  0  0  0  0  0  0  0  0  0  0  0
    1.7016   -0.1644    0.9421 H   0  0  0  0  0  0  0  0  0  0  0  0
    3.6817    1.6530    0.6951 H   0  0  0  0  0  0  0  0  0  0  0  0
    2.0449    2.1809    1.1601 H   0  0  0  0  0  0  0  0  0  0  0  0
    3.2207    2.1108   -1.6865 H   0  0  0  0  0  0  0  0  0  0  0  0
    0.4763    4.3406   -0.4296 H   0  0  0  0  0  0  0  0  0  0  0  0
    4.6688    8.9334   -0.5675 H   0  0  0  0  0  0  0  0  0  0  0  0
    2.9571    8.5120   -0.3418 H   0  0  0  0  0  0  0  0  0  0  0  0
    6.8138    5.0370   -1.3560 H   0  0  0  0  0  0  0  0  0  0  0  0
    1.0368    0.0610   -1.8847 H   0  0  0  0  0  0  0  0  0  0  0  0
   -0.8630    1.5687   -0.1641 H   0  0  0  0  0  0  0  0  0  0  0  0
   -0.5069   -0.0171    0.5051 H   0  0  0  0  0  0  0  0  0  0  0  0
 27  1  1  0
  1  2  1  0
  2 28  1  1
  2  3  1  0
  3 29  1  0
  3 30  1  0
  3  4  1  0
  4 31  1  6
  4  5  1  0
  5  6  1  0
  6 32  1  0
  6  7  2  0
  7  8  1  0
  8  9  1  0
  9 10  1  0
 10 33  1  0
 10 34  1  0
  9 11  2  0
 11 12  1  0
 12 35  1  0
 12 13  2  0
  8 14  2  0
  5 14  1  0
 13 14  1  0
  4 15  1  0
  2 16  1  0
 15 16  1  0
 16 36  1  6
 16 17  1  0
 17 37  1  0
 17 38  1  0
 17 18  1  0
 18 19  1  0
 19 20  2  0
 19 21  1  1
 19 22  1  0
 22 23  1  0
 23 24  2  0
 23 25  1  0
 23 26  1  0
M  CHG  3  21  -1  25  -1  26  -1
M  END
>  <conformer_energy>  (1) 
-23.27

>  <ligand_smiles>  (1) 
Nc1ncnc2c1ncn2[C@H]1C[C@H](O)[C@@H](CO[P@](=O)([O-])OP(=O)([O-])[O-])O1

>  <ligand_conf_name>  (1) 
MOL_0_isomer_0_conf_0

>  <ligand_molecule_name>  (1) 
MOL_0_isomer_0

$$$$
