MOL_0_isomer_0_conf_0
     RDKit          3D

 33 33  0  0  0  0  0  0  0  0999 V2000
    4.3885   -2.0978    2.4120 C   0  0  0  0  0  0  0  0  0  0  0  0
    2.9251   -2.1165    2.8422 C   0  0  0  0  0  0  0  0  0  0  0  0
    2.0908   -1.0989    2.0649 C   0  0  0  0  0  0  0  0  0  0  0  0
    2.2356   -1.2977    0.5545 C   0  0  0  0  0  0  0  0  0  0  0  0
    1.5279   -0.1962   -0.1902 N   0  0  0  0  0  4  0  0  0  0  0  0
    0.0336   -0.1073   -0.0687 C   0  0  0  0  0  0  0  0  0  0  0  0
   -0.6064   -1.3237   -0.6881 C   0  0  0  0  0  0  0  0  0  0  0  0
   -2.1192   -1.1746   -0.7527 C   0  0  0  0  0  0  0  0  0  0  0  0
   -2.8368   -2.5744   -1.5649 S   0  0  0  0  0  6  0  0  0  0  0  0
   -4.2599   -2.2679   -1.5194 O   0  0  0  0  0  0  0  0  0  0  0  0
   -2.3924   -3.6771   -0.7172 O   0  0  0  0  0  0  0  0  0  0  0  0
   -2.2112   -2.5089   -2.8830 O   0  0  0  0  0  1  0  0  0  0  0  0
    3.7084   -1.2692    0.1284 C   0  0  0  0  0  0  0  0  0  0  0  0
    4.5327   -2.2924    0.9058 C   0  0  0  0  0  0  0  0  0  0  0  0
    4.9384   -2.8849    2.9400 H   0  0  0  0  0  0  0  0  0  0  0  0
    4.8416   -1.1416    2.7015 H   0  0  0  0  0  0  0  0  0  0  0  0
    2.8540   -1.9073    3.9155 H   0  0  0  0  0  0  0  0  0  0  0  0
    2.5120   -3.1206    2.6847 H   0  0  0  0  0  0  0  0  0  0  0  0
    1.0441   -1.2051    2.3700 H   0  0  0  0  0  0  0  0  0  0  0  0
    2.4053   -0.0854    2.3451 H   0  0  0  0  0  0  0  0  0  0  0  0
    1.7922   -2.2483    0.2411 H   0  0  0  0  0  0  0  0  0  0  0  0
    1.7329   -0.3085   -1.1940 H   0  0  0  0  0  0  0  0  0  0  0  0
    1.9293    0.7107    0.0764 H   0  0  0  0  0  0  0  0  0  0  0  0
   -0.2195    0.0203    0.9872 H   0  0  0  0  0  0  0  0  0  0  0  0
   -0.2500    0.8043   -0.6053 H   0  0  0  0  0  0  0  0  0  0  0  0
   -0.3584   -2.2175   -0.1053 H   0  0  0  0  0  0  0  0  0  0  0  0
   -0.1989   -1.4814   -1.6940 H   0  0  0  0  0  0  0  0  0  0  0  0
   -2.4068   -0.2818   -1.3180 H   0  0  0  0  0  0  0  0  0  0  0  0
   -2.5522   -1.1091    0.2509 H   0  0  0  0  0  0  0  0  0  0  0  0
    3.7944   -1.4766   -0.9451 H   0  0  0  0  0  0  0  0  0  0  0  0
    4.1307   -0.2693    0.2931 H   0  0  0  0  0  0  0  0  0  0  0  0
    5.5878   -2.2080    0.6224 H   0  0  0  0  0  0  0  0  0  0  0  0
    4.2084   -3.3047    0.6348 H   0  0  0  0  0  0  0  0  0  0  0  0
 15  1  1  0
  1 16  1  0
  1  2  1  0
  2 17  1  0
  2 18  1  0
  2  3  1  0
  3 19  1  0
  3 20  1  0
  3  4  1  0
  4 21  1  0
  4  5  1  0
  5 22  1  0
  5 23  1  0
  5  6  1  0
  6 24  1  0
  6 25  1  0
  6  7  1  0
  7 26  1  0
  7 27  1  0
  7  8  1  0
  8 28  1  0
  8 29  1  0
  8  9  1  0
  9 10  2  0
  9 11  2  0
  9 12  1  0
  4 13  1  0
 13 30  1  0
 13 31  1  0
  1 14  1  0
 13 14  1  0
 14 32  1  0
 14 33  1  0
M  CHG  2   5   1  12  -1
M  END
>  <conformer_energy>  (1) 
-52.72

>  <ligand_smiles>  (1) 
O=S(=O)([O-])CCC[NH2+]C1CCCCC1

>  <ligand_conf_name>  (1) 
MOL_0_isomer_0_conf_0

>  <ligand_molecule_name>  (1) 
MOL_0_isomer_0

$$$$
