MOL_0_isomer_0_conf_0
     RDKit          3D

 47 49  0  0  0  0  0  0  0  0999 V2000
    8.5571   -2.5716    1.8202 C   0  0  0  0  0  0  0  0  0  0  0  0
    9.7833   -2.4142    2.3776 N   0  0  0  0  0  0  0  0  0  0  0  0
    9.7303   -1.9245    3.6330 C   0  0  0  0  0  0  0  0  0  0  0  0
   10.8251   -1.6819    4.4044 O   0  0  0  0  0  0  0  0  0  0  0  0
   10.4300   -1.1897    5.6392 N   0  0  0  0  0  0  0  0  0  0  0  0
    9.0899   -1.1416    5.6031 C   0  0  0  0  0  0  0  0  0  0  0  0
    8.3101   -0.6556    6.7901 C   0  0  0  0  0  0  0  0  0  0  0  0
    8.5266   -1.5454    8.0162 C   0  0  0  0  0  0  0  0  0  0  0  0
    8.6284    0.8043    7.1206 C   0  0  0  0  0  0  0  0  0  0  0  0
    8.5918   -1.5901    4.3526 C   0  0  0  0  0  0  0  0  0  0  0  0
    7.3445   -1.7610    3.7311 C   0  0  0  0  0  0  0  0  0  0  0  0
    7.3409   -2.2520    2.4189 C   0  0  0  0  0  0  0  0  0  0  0  0
    6.0442   -2.4509    1.7300 C   0  0  0  0  0  0  0  0  0  0  0  0
    5.0344   -2.6495    2.3967 O   0  0  0  0  0  0  0  0  0  0  0  0
    6.0474   -2.3564    0.3542 N   0  0  0  0  0  0  0  0  0  0  0  0
    4.8261   -2.5250   -0.4211 C   0  0  1  0  0  0  0  0  0  0  0  0
    4.0392   -1.2263   -0.4371 C   0  0  0  0  0  0  0  0  0  0  0  0
    4.4915   -0.0864   -1.1229 C   0  0  0  0  0  0  0  0  0  0  0  0
    3.7653    1.1082   -1.0864 C   0  0  0  0  0  0  0  0  0  0  0  0
    2.5838    1.1888   -0.3518 C   0  0  0  0  0  0  0  0  0  0  0  0
    2.1353    0.0655    0.3428 C   0  0  0  0  0  0  0  0  0  0  0  0
    0.6548    0.1456    1.3122 S   0  0  0  0  0  6  0  0  0  0  0  0
   -0.1692   -0.9861    0.9631 O   0  0  0  0  0  0  0  0  0  0  0  0
    0.1641    1.5051    1.2926 O   0  0  0  0  0  0  0  0  0  0  0  0
    1.2432   -0.0880    2.8730 N   0  0  0  0  0  0  0  0  0  0  0  0
    2.8461   -1.1380    0.2964 C   0  0  0  0  0  0  0  0  0  0  0  0
    5.1462   -3.0382   -1.8251 C   0  0  0  0  0  0  0  0  0  0  0  0
    8.5950   -3.0078    0.8246 H   0  0  0  0  0  0  0  0  0  0  0  0
    7.2419   -0.7044    6.5410 H   0  0  0  0  0  0  0  0  0  0  0  0
    7.8940   -1.2191    8.8487 H   0  0  0  0  0  0  0  0  0  0  0  0
    9.5682   -1.5198    8.3556 H   0  0  0  0  0  0  0  0  0  0  0  0
    8.2754   -2.5881    7.7917 H   0  0  0  0  0  0  0  0  0  0  0  0
    7.9976    1.1626    7.9412 H   0  0  0  0  0  0  0  0  0  0  0  0
    8.4499    1.4494    6.2530 H   0  0  0  0  0  0  0  0  0  0  0  0
    9.6747    0.9321    7.4204 H   0  0  0  0  0  0  0  0  0  0  0  0
    6.4171   -1.5227    4.2434 H   0  0  0  0  0  0  0  0  0  0  0  0
    6.8613   -2.0147   -0.1363 H   0  0  0  0  0  0  0  0  0  0  0  0
    4.2260   -3.2993    0.0747 H   0  0  0  0  0  0  0  0  0  0  0  0
    5.4189   -0.1143   -1.6905 H   0  0  0  0  0  0  0  0  0  0  0  0
    4.1260    1.9793   -1.6291 H   0  0  0  0  0  0  0  0  0  0  0  0
    2.0264    2.1226   -0.3259 H   0  0  0  0  0  0  0  0  0  0  0  0
    2.2099   -0.4136    2.9012 H   0  0  0  0  0  0  0  0  0  0  0  0
    1.1079    0.7693    3.4104 H   0  0  0  0  0  0  0  0  0  0  0  0
    2.4770   -2.0050    0.8449 H   0  0  0  0  0  0  0  0  0  0  0  0
    4.2328   -3.1590   -2.4177 H   0  0  0  0  0  0  0  0  0  0  0  0
    5.6472   -4.0112   -1.7706 H   0  0  0  0  0  0  0  0  0  0  0  0
    5.8156   -2.3629   -2.3692 H   0  0  0  0  0  0  0  0  0  0  0  0
 28  1  1  0
  1  2  2  0
  2  3  1  0
  3  4  1  0
  4  5  1  0
  5  6  2  0
  6  7  1  0
  7 29  1  0
  7  8  1  0
  8 30  1  0
  8 31  1  0
  8 32  1  0
  7  9  1  0
  9 33  1  0
  9 34  1  0
  9 35  1  0
  3 10  2  0
  6 10  1  0
 10 11  1  0
 11 36  1  0
  1 12  1  0
 11 12  2  0
 12 13  1  0
 13 14  2  0
 13 15  1  0
 15 37  1  0
 15 16  1  0
 16 38  1  1
 16 17  1  0
 17 18  2  0
 18 39  1  0
 18 19  1  0
 19 40  1  0
 19 20  2  0
 20 41  1  0
 20 21  1  0
 21 22  1  0
 22 23  2  0
 22 24  2  0
 22 25  1  0
 25 42  1  0
 25 43  1  0
 17 26  1  0
 21 26  2  0
 26 44  1  0
 16 27  1  0
 27 45  1  0
 27 46  1  0
 27 47  1  0
M  END
>  <conformer_energy>  (1) 
-32.57

>  <ligand_smiles>  (1) 
CC(C)c1noc2ncc(C(=O)N[C@H](C)c3cccc(S(N)(=O)=O)c3)cc12

>  <ligand_conf_name>  (1) 
MOL_0_isomer_0_conf_0

>  <ligand_molecule_name>  (1) 
MOL_0_isomer_0

$$$$
