MOL_0_isomer_0_chiral_N_isomer_0_conf_0
     RDKit          3D

 81 85  0  0  0  0  0  0  0  0999 V2000
    6.2478    1.2143   -0.4293 O   0  0  0  0  0  0  0  0  0  0  0  0
    5.5235    2.1240    0.4257 C   0  0  2  0  0  0  0  0  0  0  0  0
    6.5084    3.1189    1.0794 C   0  0  0  0  0  0  0  0  0  0  0  0
    5.9027    3.9885    2.1454 N   0  0  0  0  0  0  0  0  0  0  0  0
    6.9536    4.4830    3.1100 C   0  0  0  0  0  0  0  0  0  0  0  0
    7.2274    3.4451    4.2206 C   0  0  0  0  0  0  0  0  0  0  0  0
    6.0116    3.2669    5.1588 C   0  0  0  0  0  0  0  0  0  0  0  0
    5.7582    4.4113    6.1321 C   0  0  0  0  0  0  0  0  0  0  0  0
    8.5030    3.7915    5.0193 C   0  0  0  0  0  0  0  0  0  0  0  0
    9.7875    3.5786    4.2287 C   0  0  0  0  0  0  0  0  0  0  0  0
    4.9222    5.2657    1.5036 S   0  0  0  0  0  6  0  0  0  0  0  0
    5.8145    6.3508    1.1560 O   0  0  0  0  0  0  0  0  0  0  0  0
    4.0061    4.7103    0.5355 O   0  0  0  0  0  0  0  0  0  0  0  0
    3.9480    5.7528    2.9094 C   0  0  0  0  0  0  0  0  0  0  0  0
    2.9546    4.8869    3.3681 C   0  0  0  0  0  0  0  0  0  0  0  0
    2.1755    5.2434    4.4735 C   0  0  0  0  0  0  0  0  0  0  0  0
    2.3892    6.4822    5.1137 C   0  0  0  0  0  0  0  0  0  0  0  0
    1.7011    6.9504    6.2205 N   0  0  0  0  0  0  0  0  0  0  0  0
    2.1486    8.1423    6.5431 C   0  0  0  0  0  0  0  0  0  0  0  0
    3.4090    8.7722    5.5726 S   0  0  0  0  0  0  0  0  0  0  0  0
    3.3749    7.3390    4.6138 C   0  0  0  0  0  0  0  0  0  0  0  0
    4.1670    7.0023    3.5033 C   0  0  0  0  0  0  0  0  0  0  0  0
    4.6404    1.3281    1.4253 C   0  0  1  0  0  0  0  0  0  0  0  0
    3.5732    0.6560    0.6833 N   0  0  0  0  0  0  0  0  0  0  0  0
    2.2538    0.7985    0.9719 C   0  0  0  0  0  0  0  0  0  0  0  0
    1.7855    1.5064    1.8501 O   0  0  0  0  0  0  0  0  0  0  0  0
    1.5332    0.0292    0.1210 O   0  0  0  0  0  0  0  0  0  0  0  0
    0.1201    0.0716    0.3188 C   0  0  1  0  0  0  0  0  0  0  0  0
   -0.5332    1.3708   -0.1342 C   0  0  0  0  0  0  0  0  0  0  0  0
   -1.8596    1.0446   -0.5758 O   0  0  0  0  0  0  0  0  0  0  0  0
   -1.9617   -0.3768   -0.7124 C   0  0  1  0  0  0  0  0  0  0  0  0
   -2.4282   -0.7390   -2.0126 O   0  0  0  0  0  0  0  0  0  0  0  0
   -1.3683   -1.3975   -2.7143 C   0  0  0  0  0  0  0  0  0  0  0  0
   -0.0884   -1.0672   -1.9821 C   0  0  0  0  0  0  0  0  0  0  0  0
   -0.5720   -0.9516   -0.5491 C   0  0  1  0  0  0  0  0  0  0  0  0
    5.4410    0.2931    2.2484 C   0  0  0  0  0  0  0  0  0  0  0  0
    4.6537   -0.4830    3.2846 C   0  0  0  0  0  0  0  0  0  0  0  0
    4.7819   -1.8784    3.3544 C   0  0  0  0  0  0  0  0  0  0  0  0
    4.0818   -2.6121    4.3148 C   0  0  0  0  0  0  0  0  0  0  0  0
    3.2519   -1.9614    5.2234 C   0  0  0  0  0  0  0  0  0  0  0  0
    3.1262   -0.5756    5.1753 C   0  0  0  0  0  0  0  0  0  0  0  0
    3.8246    0.1591    4.2150 C   0  0  0  0  0  0  0  0  0  0  0  0
    7.0003    0.8455    0.0634 H   0  0  0  0  0  0  0  0  0  0  0  0
    4.8659    2.6693   -0.2565 H   0  0  0  0  0  0  0  0  0  0  0  0
    6.9700    3.7463    0.3057 H   0  0  0  0  0  0  0  0  0  0  0  0
    7.3446    2.5484    1.5019 H   0  0  0  0  0  0  0  0  0  0  0  0
    7.8635    4.6988    2.5390 H   0  0  0  0  0  0  0  0  0  0  0  0
    6.6523    5.4274    3.5700 H   0  0  0  0  0  0  0  0  0  0  0  0
    7.3973    2.4697    3.7511 H   0  0  0  0  0  0  0  0  0  0  0  0
    6.1546    2.3502    5.7451 H   0  0  0  0  0  0  0  0  0  0  0  0
    5.1092    3.1041    4.5610 H   0  0  0  0  0  0  0  0  0  0  0  0
    6.5529    4.4774    6.8815 H   0  0  0  0  0  0  0  0  0  0  0  0
    5.6912    5.3747    5.6248 H   0  0  0  0  0  0  0  0  0  0  0  0
    4.8172    4.2450    6.6665 H   0  0  0  0  0  0  0  0  0  0  0  0
    8.5524    3.1574    5.9128 H   0  0  0  0  0  0  0  0  0  0  0  0
    8.4672    4.8314    5.3639 H   0  0  0  0  0  0  0  0  0  0  0  0
   10.6562    3.7484    4.8738 H   0  0  0  0  0  0  0  0  0  0  0  0
    9.8668    4.2690    3.3847 H   0  0  0  0  0  0  0  0  0  0  0  0
    9.8465    2.5546    3.8456 H   0  0  0  0  0  0  0  0  0  0  0  0
    2.7714    3.9340    2.8718 H   0  0  0  0  0  0  0  0  0  0  0  0
    1.4007    4.5760    4.8409 H   0  0  0  0  0  0  0  0  0  0  0  0
    1.7456    8.7005    7.3784 H   0  0  0  0  0  0  0  0  0  0  0  0
    4.9229    7.6879    3.1310 H   0  0  0  0  0  0  0  0  0  0  0  0
    4.1667    2.0427    2.1044 H   0  0  0  0  0  0  0  0  0  0  0  0
    3.8107    0.0614   -0.0993 H   0  0  0  0  0  0  0  0  0  0  0  0
   -0.1272   -0.1341    1.3690 H   0  0  0  0  0  0  0  0  0  0  0  0
    0.0071    1.8412   -0.9631 H   0  0  0  0  0  0  0  0  0  0  0  0
   -0.5989    2.1033    0.6759 H   0  0  0  0  0  0  0  0  0  0  0  0
   -2.6638   -0.7444    0.0436 H   0  0  0  0  0  0  0  0  0  0  0  0
   -1.3538   -1.0675   -3.7573 H   0  0  0  0  0  0  0  0  0  0  0  0
   -1.5688   -2.4742   -2.6919 H   0  0  0  0  0  0  0  0  0  0  0  0
    0.3139   -0.1168   -2.3519 H   0  0  0  0  0  0  0  0  0  0  0  0
    0.6846   -1.8295   -2.1177 H   0  0  0  0  0  0  0  0  0  0  0  0
   -0.5898   -1.9493   -0.0951 H   0  0  0  0  0  0  0  0  0  0  0  0
    6.2667    0.7846    2.7713 H   0  0  0  0  0  0  0  0  0  0  0  0
    5.8994   -0.4266    1.5585 H   0  0  0  0  0  0  0  0  0  0  0  0
    5.4243   -2.4109    2.6568 H   0  0  0  0  0  0  0  0  0  0  0  0
    4.1808   -3.6943    4.3505 H   0  0  0  0  0  0  0  0  0  0  0  0
    2.7032   -2.5319    5.9679 H   0  0  0  0  0  0  0  0  0  0  0  0
    2.4769   -0.0637    5.8798 H   0  0  0  0  0  0  0  0  0  0  0  0
    3.6933    1.2378    4.1967 H   0  0  0  0  0  0  0  0  0  0  0  0
 43  1  1  0
  1  2  1  0
  2 44  1  6
  2  3  1  0
  3 45  1  0
  3 46  1  0
  4  3  1  6
  4  5  1  0
  5 47  1  0
  5 48  1  0
  5  6  1  0
  6 49  1  0
  6  7  1  0
  7 50  1  0
  7 51  1  0
  7  8  1  0
  8 52  1  0
  8 53  1  0
  8 54  1  0
  6  9  1  0
  9 55  1  0
  9 56  1  0
  9 10  1  0
 10 57  1  0
 10 58  1  0
 10 59  1  0
  4 11  1  0
 11 12  2  0
 11 13  2  0
 11 14  1  0
 14 15  2  0
 15 60  1  0
 15 16  1  0
 16 61  1  0
 16 17  2  0
 17 18  1  0
 18 19  2  0
 19 62  1  0
 19 20  1  0
 17 21  1  0
 20 21  1  0
 14 22  1  0
 21 22  2  0
 22 63  1  0
  2 23  1  0
 23 64  1  1
 23 24  1  0
 24 65  1  0
 24 25  1  0
 25 26  2  0
 25 27  1  0
 27 28  1  0
 28 66  1  1
 28 29  1  0
 29 67  1  0
 29 68  1  0
 29 30  1  0
 30 31  1  0
 31 69  1  1
 31 32  1  0
 32 33  1  0
 33 70  1  0
 33 71  1  0
 33 34  1  0
 34 72  1  0
 34 73  1  0
 31 35  1  0
 28 35  1  0
 34 35  1  0
 35 74  1  1
 23 36  1  0
 36 75  1  0
 36 76  1  0
 36 37  1  0
 37 38  2  0
 38 77  1  0
 38 39  1  0
 39 78  1  0
 39 40  2  0
 40 79  1  0
 40 41  1  0
 41 80  1  0
 37 42  1  0
 41 42  2  0
 42 81  1  0
M  END
>  <conformer_energy>  (1) 
-12.38

>  <ligand_smiles>  (1) 
CCC(CC)CN(C[C@@H](O)[C@H](Cc1ccccc1)NC(=O)O[C@H]1CO[C@H]2OCC[C@H]21)S(=O)(=O)c1ccc2ncsc2c1

>  <ligand_conf_name>  (1) 
MOL_0_isomer_0_chiral_N_isomer_0_conf_0

>  <ligand_molecule_name>  (1) 
MOL_0_isomer_0_chiral_N_isomer_0

$$$$
MOL_0_isomer_0_chiral_N_isomer_1_conf_0
     RDKit          3D

 81 85  0  0  0  0  0  0  0  0999 V2000
    5.7605    3.1533    1.0289 O   0  0  0  0  0  0  0  0  0  0  0  0
    4.9403    2.1934    0.3461 C   0  0  2  0  0  0  0  0  0  0  0  0
    4.0141    2.9538   -0.6214 C   0  0  0  0  0  0  0  0  0  0  0  0
    4.8152    3.9583   -1.4405 N   0  0  0  0  0  0  0  0  0  0  0  0
    4.0060    5.2083   -1.6741 C   0  0  0  0  0  0  0  0  0  0  0  0
    4.1212    6.1632   -0.4633 C   0  0  0  0  0  0  0  0  0  0  0  0
    3.0578    7.2802   -0.5150 C   0  0  0  0  0  0  0  0  0  0  0  0
    1.6312    6.7768   -0.3167 C   0  0  0  0  0  0  0  0  0  0  0  0
    5.5432    6.7569   -0.3169 C   0  0  0  0  0  0  0  0  0  0  0  0
    5.9398    7.7893   -1.3666 C   0  0  0  0  0  0  0  0  0  0  0  0
    5.4318    3.2405   -2.8892 S   0  0  0  0  0  6  0  0  0  0  0  0
    6.2303    2.0937   -2.5140 O   0  0  0  0  0  0  0  0  0  0  0  0
    4.3207    3.1098   -3.8100 O   0  0  0  0  0  0  0  0  0  0  0  0
    6.5510    4.4751   -3.5077 C   0  0  0  0  0  0  0  0  0  0  0  0
    6.2602    5.1417   -4.6978 C   0  0  0  0  0  0  0  0  0  0  0  0
    7.1347    6.1231   -5.1739 C   0  0  0  0  0  0  0  0  0  0  0  0
    8.3095    6.4314   -4.4529 C   0  0  0  0  0  0  0  0  0  0  0  0
    9.2439    7.3885   -4.8073 N   0  0  0  0  0  0  0  0  0  0  0  0
   10.2092    7.4131   -3.9148 C   0  0  0  0  0  0  0  0  0  0  0  0
   10.0684    6.3140   -2.6094 S   0  0  0  0  0  0  0  0  0  0  0  0
    8.5833    5.7324   -3.2727 C   0  0  0  0  0  0  0  0  0  0  0  0
    7.7214    4.7384   -2.7809 C   0  0  0  0  0  0  0  0  0  0  0  0
    4.1548    1.3496    1.3834 C   0  0  1  0  0  0  0  0  0  0  0  0
    3.2430    0.4012    0.7412 N   0  0  0  0  0  0  0  0  0  0  0  0
    1.9267    0.6685    0.5313 C   0  0  0  0  0  0  0  0  0  0  0  0
    1.3725    1.7263    0.7920 O   0  0  0  0  0  0  0  0  0  0  0  0
    1.3318   -0.4061   -0.0386 O   0  0  0  0  0  0  0  0  0  0  0  0
   -0.0644   -0.2510   -0.2957 C   0  0  1  0  0  0  0  0  0  0  0  0
   -0.3867    0.6663   -1.4619 C   0  0  0  0  0  0  0  0  0  0  0  0
   -1.6809    0.2707   -1.9282 O   0  0  0  0  0  0  0  0  0  0  0  0
   -1.9128   -1.0846   -1.5207 C   0  0  1  0  0  0  0  0  0  0  0  0
   -2.0178   -1.9433   -2.6544 O   0  0  0  0  0  0  0  0  0  0  0  0
   -0.6883   -2.3196   -3.0110 C   0  0  0  0  0  0  0  0  0  0  0  0
    0.0695   -2.4311   -1.7036 C   0  0  0  0  0  0  0  0  0  0  0  0
   -0.7055   -1.5540   -0.7274 C   0  0  1  0  0  0  0  0  0  0  0  0
    5.1356    0.6136    2.3281 C   0  0  0  0  0  0  0  0  0  0  0  0
    4.4470   -0.1704    3.4250 C   0  0  0  0  0  0  0  0  0  0  0  0
    4.4935   -1.5716    3.4354 C   0  0  0  0  0  0  0  0  0  0  0  0
    3.8577   -2.2926    4.4491 C   0  0  0  0  0  0  0  0  0  0  0  0
    3.1748   -1.6210    5.4620 C   0  0  0  0  0  0  0  0  0  0  0  0
    3.1238   -0.2282    5.4625 C   0  0  0  0  0  0  0  0  0  0  0  0
    3.7589    0.4938    4.4509 C   0  0  0  0  0  0  0  0  0  0  0  0
    5.9767    3.8234    0.3516 H   0  0  0  0  0  0  0  0  0  0  0  0
    5.6155    1.5365   -0.2075 H   0  0  0  0  0  0  0  0  0  0  0  0
    3.2603    3.4940   -0.0388 H   0  0  0  0  0  0  0  0  0  0  0  0
    3.4738    2.2713   -1.2855 H   0  0  0  0  0  0  0  0  0  0  0  0
    4.3300    5.7275   -2.5784 H   0  0  0  0  0  0  0  0  0  0  0  0
    2.9673    4.9114   -1.8512 H   0  0  0  0  0  0  0  0  0  0  0  0
    3.9398    5.5861    0.4537 H   0  0  0  0  0  0  0  0  0  0  0  0
    3.1096    7.8124   -1.4735 H   0  0  0  0  0  0  0  0  0  0  0  0
    3.2669    8.0164    0.2719 H   0  0  0  0  0  0  0  0  0  0  0  0
    1.3037    6.1489   -1.1515 H   0  0  0  0  0  0  0  0  0  0  0  0
    1.5434    6.1999    0.6096 H   0  0  0  0  0  0  0  0  0  0  0  0
    0.9416    7.6261   -0.2528 H   0  0  0  0  0  0  0  0  0  0  0  0
    6.2846    5.9508   -0.3201 H   0  0  0  0  0  0  0  0  0  0  0  0
    5.6234    7.2308    0.6706 H   0  0  0  0  0  0  0  0  0  0  0  0
    6.9853    8.0831   -1.2174 H   0  0  0  0  0  0  0  0  0  0  0  0
    5.3291    8.6943   -1.2925 H   0  0  0  0  0  0  0  0  0  0  0  0
    5.8460    7.3950   -2.3823 H   0  0  0  0  0  0  0  0  0  0  0  0
    5.3562    4.9128   -5.2604 H   0  0  0  0  0  0  0  0  0  0  0  0
    6.9202    6.6599   -6.0922 H   0  0  0  0  0  0  0  0  0  0  0  0
   11.0486    8.0924   -3.9962 H   0  0  0  0  0  0  0  0  0  0  0  0
    7.9497    4.2020   -1.8643 H   0  0  0  0  0  0  0  0  0  0  0  0
    3.5554    2.0408    1.9906 H   0  0  0  0  0  0  0  0  0  0  0  0
    3.5619   -0.5256    0.4908 H   0  0  0  0  0  0  0  0  0  0  0  0
   -0.5829    0.0975    0.6095 H   0  0  0  0  0  0  0  0  0  0  0  0
    0.3364    0.5634   -2.2800 H   0  0  0  0  0  0  0  0  0  0  0  0
   -0.4145    1.7225   -1.1740 H   0  0  0  0  0  0  0  0  0  0  0  0
   -2.8441   -1.1161   -0.9494 H   0  0  0  0  0  0  0  0  0  0  0  0
   -0.2667   -1.5413   -3.6561 H   0  0  0  0  0  0  0  0  0  0  0  0
   -0.7047   -3.2597   -3.5702 H   0  0  0  0  0  0  0  0  0  0  0  0
    1.1279   -2.1832   -1.8189 H   0  0  0  0  0  0  0  0  0  0  0  0
    0.0204   -3.4699   -1.3539 H   0  0  0  0  0  0  0  0  0  0  0  0
   -0.9878   -2.1584    0.1432 H   0  0  0  0  0  0  0  0  0  0  0  0
    5.8197    1.3270    2.8066 H   0  0  0  0  0  0  0  0  0  0  0  0
    5.7681   -0.0649    1.7408 H   0  0  0  0  0  0  0  0  0  0  0  0
    5.0289   -2.1131    2.6594 H   0  0  0  0  0  0  0  0  0  0  0  0
    3.8996   -3.3782    4.4525 H   0  0  0  0  0  0  0  0  0  0  0  0
    2.6888   -2.1817    6.2559 H   0  0  0  0  0  0  0  0  0  0  0  0
    2.5938    0.2965    6.2529 H   0  0  0  0  0  0  0  0  0  0  0  0
    3.7175    1.5808    4.4722 H   0  0  0  0  0  0  0  0  0  0  0  0
 43  1  1  0
  1  2  1  0
  2 44  1  6
  2  3  1  0
  3 45  1  0
  3 46  1  0
  4  3  1  6
  4  5  1  0
  5 47  1  0
  5 48  1  0
  5  6  1  0
  6 49  1  0
  6  7  1  0
  7 50  1  0
  7 51  1  0
  7  8  1  0
  8 52  1  0
  8 53  1  0
  8 54  1  0
  6  9  1  0
  9 55  1  0
  9 56  1  0
  9 10  1  0
 10 57  1  0
 10 58  1  0
 10 59  1  0
  4 11  1  0
 11 12  2  0
 11 13  2  0
 11 14  1  0
 14 15  2  0
 15 60  1  0
 15 16  1  0
 16 61  1  0
 16 17  2  0
 17 18  1  0
 18 19  2  0
 19 62  1  0
 19 20  1  0
 17 21  1  0
 20 21  1  0
 14 22  1  0
 21 22  2  0
 22 63  1  0
  2 23  1  0
 23 64  1  1
 23 24  1  0
 24 65  1  0
 24 25  1  0
 25 26  2  0
 25 27  1  0
 27 28  1  0
 28 66  1  1
 28 29  1  0
 29 67  1  0
 29 68  1  0
 29 30  1  0
 30 31  1  0
 31 69  1  1
 31 32  1  0
 32 33  1  0
 33 70  1  0
 33 71  1  0
 33 34  1  0
 34 72  1  0
 34 73  1  0
 31 35  1  0
 28 35  1  0
 34 35  1  0
 35 74  1  1
 23 36  1  0
 36 75  1  0
 36 76  1  0
 36 37  1  0
 37 38  2  0
 38 77  1  0
 38 39  1  0
 39 78  1  0
 39 40  2  0
 40 79  1  0
 40 41  1  0
 41 80  1  0
 37 42  1  0
 41 42  2  0
 42 81  1  0
M  END
>  <conformer_energy>  (2) 
-18.04

>  <ligand_smiles>  (2) 
CCC(CC)CN(C[C@@H](O)[C@H](Cc1ccccc1)NC(=O)O[C@H]1CO[C@H]2OCC[C@H]21)S(=O)(=O)c1ccc2ncsc2c1

>  <ligand_conf_name>  (2) 
MOL_0_isomer_0_chiral_N_isomer_1_conf_0

>  <ligand_molecule_name>  (2) 
MOL_0_isomer_0_chiral_N_isomer_1

$$$$
