MOL_0_isomer_0_conf_0
     RDKit          3D

 58 60  0  0  0  0  0  0  0  0999 V2000
    7.2594  -11.8340    4.3289 C   0  0  0  0  0  0  0  0  0  0  0  0
    8.1041  -10.8868    3.7534 C   0  0  0  0  0  0  0  0  0  0  0  0
    7.7383   -9.5401    3.7346 C   0  0  0  0  0  0  0  0  0  0  0  0
    6.5145   -9.1326    4.2872 C   0  0  0  0  0  0  0  0  0  0  0  0
    6.0780   -7.6888    4.2227 C   0  0  0  0  0  0  0  0  0  0  0  0
    5.7923   -7.2136    2.7918 C   0  0  2  0  0  0  0  0  0  0  0  0
    5.1401   -5.8249    2.8254 C   0  0  0  0  0  0  0  0  0  0  0  0
    3.9045   -5.7664    2.8013 O   0  0  0  0  0  0  0  0  0  0  0  0
    5.9317   -4.7098    2.8332 N   0  0  0  0  0  0  0  0  0  0  0  0
    7.3839   -4.6325    2.9270 C   0  0  0  0  0  0  0  0  0  0  0  0
    7.7193   -3.1784    2.6330 C   0  0  0  0  0  0  0  0  0  0  0  0
    6.4639   -2.4278    3.0659 C   0  0  0  0  0  0  0  0  0  0  0  0
    5.3390   -3.3800    2.6683 C   0  0  1  0  0  0  0  0  0  0  0  0
    4.9172   -3.1782    1.1923 C   0  0  0  0  0  0  0  0  0  0  0  0
    5.1808   -3.9986    0.3112 O   0  0  0  0  0  0  0  0  0  0  0  0
    4.2258   -2.0116    0.9426 N   0  0  0  0  0  0  0  0  0  0  0  0
    3.7851   -1.7013   -0.3967 C   0  0  0  0  0  0  0  0  0  0  0  0
    2.9635   -0.4396   -0.4451 C   0  0  0  0  0  0  0  0  0  0  0  0
    1.6280   -0.4435   -0.0240 C   0  0  0  0  0  0  0  0  0  0  0  0
    0.8439    0.7094   -0.1302 C   0  0  0  0  0  0  0  0  0  0  0  0
    1.3805    1.8918   -0.6608 C   0  0  0  0  0  0  0  0  0  0  0  0
    0.5284    3.1181   -0.8052 C   0  0  0  0  0  0  0  0  0  0  0  0
    0.6349    3.9963    0.3791 N   0  0  0  0  0  4  0  0  0  0  0  0
    2.7288    1.9071   -1.0428 C   0  0  0  0  0  0  0  0  0  0  0  0
    3.5107    0.7526   -0.9354 C   0  0  0  0  0  0  0  0  0  0  0  0
    4.8280   -8.1629    2.1118 N   0  0  0  0  0  4  0  0  0  0  0  0
    5.6793  -10.0921    4.8796 C   0  0  0  0  0  0  0  0  0  0  0  0
    6.0503  -11.4364    4.8963 C   0  0  0  0  0  0  0  0  0  0  0  0
    7.5531  -12.8817    4.3555 H   0  0  0  0  0  0  0  0  0  0  0  0
    9.0589  -11.2038    3.3339 H   0  0  0  0  0  0  0  0  0  0  0  0
    8.4330   -8.8243    3.2979 H   0  0  0  0  0  0  0  0  0  0  0  0
    5.1870   -7.5437    4.8465 H   0  0  0  0  0  0  0  0  0  0  0  0
    6.8557   -7.0676    4.6802 H   0  0  0  0  0  0  0  0  0  0  0  0
    6.6878   -7.2169    2.1654 H   0  0  0  0  0  0  0  0  0  0  0  0
    7.8594   -5.3209    2.2245 H   0  0  0  0  0  0  0  0  0  0  0  0
    7.6687   -4.9101    3.9470 H   0  0  0  0  0  0  0  0  0  0  0  0
    7.8815   -3.0407    1.5569 H   0  0  0  0  0  0  0  0  0  0  0  0
    8.6183   -2.8422    3.1568 H   0  0  0  0  0  0  0  0  0  0  0  0
    6.4752   -2.2997    4.1556 H   0  0  0  0  0  0  0  0  0  0  0  0
    6.3975   -1.4395    2.6043 H   0  0  0  0  0  0  0  0  0  0  0  0
    4.4538   -3.2707    3.3032 H   0  0  0  0  0  0  0  0  0  0  0  0
    4.0298   -1.3585    1.6880 H   0  0  0  0  0  0  0  0  0  0  0  0
    3.1992   -2.5434   -0.7807 H   0  0  0  0  0  0  0  0  0  0  0  0
    4.6715   -1.6169   -1.0347 H   0  0  0  0  0  0  0  0  0  0  0  0
    1.1801   -1.3610    0.3591 H   0  0  0  0  0  0  0  0  0  0  0  0
   -0.2000    0.6514    0.1753 H   0  0  0  0  0  0  0  0  0  0  0  0
   -0.5284    2.8580   -0.9149 H   0  0  0  0  0  0  0  0  0  0  0  0
    0.8250    3.7119   -1.6761 H   0  0  0  0  0  0  0  0  0  0  0  0
    1.5977    4.3280    0.5070 H   0  0  0  0  0  0  0  0  0  0  0  0
    0.3677    3.4908    1.2332 H   0  0  0  0  0  0  0  0  0  0  0  0
    0.0262    4.8175    0.2908 H   0  0  0  0  0  0  0  0  0  0  0  0
    3.1878    2.8004   -1.4667 H   0  0  0  0  0  0  0  0  0  0  0  0
    4.5474    0.7801   -1.2710 H   0  0  0  0  0  0  0  0  0  0  0  0
    3.8951   -8.0494    2.5385 H   0  0  0  0  0  0  0  0  0  0  0  0
    5.1150   -9.1485    2.1754 H   0  0  0  0  0  0  0  0  0  0  0  0
    4.7132   -7.9080    1.1230 H   0  0  0  0  0  0  0  0  0  0  0  0
    4.7382   -9.8090    5.3502 H   0  0  0  0  0  0  0  0  0  0  0  0
    5.4063  -12.1774    5.3683 H   0  0  0  0  0  0  0  0  0  0  0  0
 29  1  1  0
  1  2  2  0
  2 30  1  0
  2  3  1  0
  3 31  1  0
  3  4  2  0
  4  5  1  0
  5 32  1  0
  5 33  1  0
  5  6  1  0
  6 34  1  6
  6  7  1  0
  7  8  2  0
  7  9  1  0
  9 10  1  0
 10 35  1  0
 10 36  1  0
 10 11  1  0
 11 37  1  0
 11 38  1  0
 11 12  1  0
 12 39  1  0
 12 40  1  0
  9 13  1  0
 12 13  1  0
 13 41  1  1
 13 14  1  0
 14 15  2  0
 14 16  1  0
 16 42  1  0
 16 17  1  0
 17 43  1  0
 17 44  1  0
 17 18  1  0
 18 19  2  0
 19 45  1  0
 19 20  1  0
 20 46  1  0
 20 21  2  0
 21 22  1  0
 22 47  1  0
 22 48  1  0
 22 23  1  0
 23 49  1  0
 23 50  1  0
 23 51  1  0
 21 24  1  0
 24 52  1  0
 18 25  1  0
 24 25  2  0
 25 53  1  0
  6 26  1  0
 26 54  1  0
 26 55  1  0
 26 56  1  0
  4 27  1  0
 27 57  1  0
  1 28  1  0
 27 28  2  0
 28 58  1  0
M  CHG  2  23   1  26   1
M  END
>  <conformer_energy>  (1) 
83.01

>  <ligand_smiles>  (1) 
[NH3+]Cc1ccc(CNC(=O)[C@@H]2CCCN2C(=O)[C@H]([NH3+])Cc2ccccc2)cc1

>  <ligand_conf_name>  (1) 
MOL_0_isomer_0_conf_0

>  <ligand_molecule_name>  (1) 
MOL_0_isomer_0

$$$$
