MOL_0_isomer_0_conf_0
     RDKit          3D

 64 68  0  0  0  0  0  0  0  0999 V2000
    6.4244   -3.1014    0.1208 O   0  0  0  0  0  0  0  0  0  0  0  0
    5.5003   -2.1020    0.2368 C   0  0  0  0  0  0  0  0  0  0  0  0
    5.8817   -0.8015    0.5693 C   0  0  0  0  0  0  0  0  0  0  0  0
    4.9258    0.2028    0.5652 C   0  0  0  0  0  0  0  0  0  0  0  0
    3.5631   -0.1258    0.3834 C   0  0  0  0  0  0  0  0  0  0  0  0
    2.6011    0.8594    0.4421 O   0  0  0  0  0  0  0  0  0  0  0  0
    3.1515   -1.4600    0.1663 C   0  0  0  0  0  0  0  0  0  0  0  0
    4.1550   -2.4352    0.0014 C   0  0  0  0  0  0  0  0  0  0  0  0
    3.8289   -3.8717   -0.3537 C   0  0  0  0  0  0  0  0  0  0  0  0
    2.3876   -4.0939   -0.8039 C   0  0  1  0  0  0  0  0  0  0  0  0
    2.2033   -3.5711   -2.1307 O   0  0  0  0  0  0  0  0  0  0  0  0
    2.1547   -5.6147   -0.8971 C   0  0  0  0  0  0  0  0  0  0  0  0
    2.3141   -6.1989   -1.9745 O   0  0  0  0  0  0  0  0  0  0  0  0
    1.8234   -6.3877    0.3603 C   0  0  0  0  0  0  0  0  0  0  0  0
    1.4344   -3.3819    0.1561 C   0  0  0  0  0  0  0  0  0  0  0  0
    1.6800   -1.8583    0.2099 C   0  0  2  0  0  0  0  0  0  0  0  0
    0.9158   -1.2453   -0.8291 O   0  0  0  0  0  0  0  0  0  0  0  0
   -0.1106   -0.4047   -0.3286 C   0  0  2  0  0  0  0  0  0  0  0  0
   -1.1189   -1.1438    0.3499 O   0  0  0  0  0  0  0  0  0  0  0  0
   -2.1043   -0.3435    0.9938 C   0  0  1  0  0  0  0  0  0  0  0  0
   -1.5484    0.3360    2.2431 C   0  0  0  0  0  0  0  0  0  0  0  0
   -2.8151    0.5725   -0.0183 C   0  0  1  0  0  0  0  0  0  0  0  0
   -3.5608    1.6299    0.6109 O   0  0  0  0  0  0  0  0  0  0  0  0
   -1.8832    1.2019   -1.0659 C   0  0  1  0  0  0  0  0  0  0  0  0
   -1.3687    2.5013   -0.5252 N   0  0  0  0  0  4  0  0  0  0  0  0
   -0.7278    0.3297   -1.5073 C   0  0  0  0  0  0  0  0  0  0  0  0
    5.3597    1.6130    0.7362 C   0  0  0  0  0  0  0  0  0  0  0  0
    4.5183    2.4958    0.6094 O   0  0  0  0  0  0  0  0  0  0  0  0
    6.7744    1.9257    0.9971 C   0  0  0  0  0  0  0  0  0  0  0  0
    7.1878    3.2570    1.1474 C   0  0  0  0  0  0  0  0  0  0  0  0
    8.5315    3.5406    1.3889 C   0  0  0  0  0  0  0  0  0  0  0  0
    9.4666    2.5039    1.4760 C   0  0  0  0  0  0  0  0  0  0  0  0
    9.0562    1.1780    1.3295 C   0  0  0  0  0  0  0  0  0  0  0  0
    7.7066    0.8929    1.0881 C   0  0  0  0  0  0  0  0  0  0  0  0
    7.2766   -0.5069    0.9454 C   0  0  0  0  0  0  0  0  0  0  0  0
    8.0467   -1.4263    1.1923 O   0  0  0  0  0  0  0  0  0  0  0  0
    7.1504   -2.9497    0.7717 H   0  0  0  0  0  0  0  0  0  0  0  0
    3.0848    1.7135    0.5691 H   0  0  0  0  0  0  0  0  0  0  0  0
    4.0438   -4.4809    0.5330 H   0  0  0  0  0  0  0  0  0  0  0  0
    4.5052   -4.1944   -1.1570 H   0  0  0  0  0  0  0  0  0  0  0  0
    2.6106   -4.2224   -2.7341 H   0  0  0  0  0  0  0  0  0  0  0  0
    0.8266   -6.1215    0.7197 H   0  0  0  0  0  0  0  0  0  0  0  0
    2.5769   -6.2012    1.1336 H   0  0  0  0  0  0  0  0  0  0  0  0
    1.8360   -7.4543    0.1237 H   0  0  0  0  0  0  0  0  0  0  0  0
    1.5770   -3.7855    1.1716 H   0  0  0  0  0  0  0  0  0  0  0  0
    0.3949   -3.5769   -0.1275 H   0  0  0  0  0  0  0  0  0  0  0  0
    1.3127   -1.5238    1.1948 H   0  0  0  0  0  0  0  0  0  0  0  0
    0.3370    0.3275    0.3433 H   0  0  0  0  0  0  0  0  0  0  0  0
   -2.8592   -1.0424    1.3693 H   0  0  0  0  0  0  0  0  0  0  0  0
   -0.7772    1.0806    2.0040 H   0  0  0  0  0  0  0  0  0  0  0  0
   -1.0658   -0.4252    2.8872 H   0  0  0  0  0  0  0  0  0  0  0  0
   -2.3247    0.8401    2.8289 H   0  0  0  0  0  0  0  0  0  0  0  0
   -3.5380   -0.0493   -0.5595 H   0  0  0  0  0  0  0  0  0  0  0  0
   -4.2674    1.2153    1.1513 H   0  0  0  0  0  0  0  0  0  0  0  0
   -2.4802    1.5081   -1.9323 H   0  0  0  0  0  0  0  0  0  0  0  0
   -0.9590    3.0968   -1.2560 H   0  0  0  0  0  0  0  0  0  0  0  0
   -2.1603    3.0068   -0.1091 H   0  0  0  0  0  0  0  0  0  0  0  0
   -0.6907    2.3950    0.2440 H   0  0  0  0  0  0  0  0  0  0  0  0
   -1.0738   -0.3988   -2.2593 H   0  0  0  0  0  0  0  0  0  0  0  0
    0.0436    0.9233   -2.0202 H   0  0  0  0  0  0  0  0  0  0  0  0
    6.4693    4.0748    1.0886 H   0  0  0  0  0  0  0  0  0  0  0  0
    8.8599    4.5739    1.5010 H   0  0  0  0  0  0  0  0  0  0  0  0
   10.5129    2.7270    1.6678 H   0  0  0  0  0  0  0  0  0  0  0  0
    9.7921    0.3711    1.3967 H   0  0  0  0  0  0  0  0  0  0  0  0
 37  1  1  0
  1  2  1  0
  2  3  2  0
  3  4  1  0
  4  5  2  0
  5  6  1  0
  6 38  1  0
  5  7  1  0
  2  8  1  0
  7  8  2  0
  8  9  1  0
  9 39  1  0
  9 40  1  0
  9 10  1  0
 10 11  1  6
 11 41  1  0
 10 12  1  0
 12 13  2  0
 12 14  1  0
 14 42  1  0
 14 43  1  0
 14 44  1  0
 10 15  1  0
 15 45  1  0
 15 46  1  0
  7 16  1  0
 15 16  1  0
 16 47  1  1
 16 17  1  0
 17 18  1  0
 18 48  1  1
 18 19  1  0
 19 20  1  0
 20 49  1  1
 20 21  1  0
 21 50  1  0
 21 51  1  0
 21 52  1  0
 20 22  1  0
 22 53  1  6
 22 23  1  0
 23 54  1  0
 22 24  1  0
 24 55  1  6
 24 25  1  0
 25 56  1  0
 25 57  1  0
 25 58  1  0
 18 26  1  0
 24 26  1  0
 26 59  1  0
 26 60  1  0
  4 27  1  0
 27 28  2  0
 27 29  1  0
 29 30  2  0
 30 61  1  0
 30 31  1  0
 31 62  1  0
 31 32  2  0
 32 63  1  0
 32 33  1  0
 33 64  1  0
 29 34  1  0
 33 34  2  0
  3 35  1  0
 34 35  1  0
 35 36  2  0
M  CHG  1  25   1
M  END
>  <conformer_energy>  (1) 
113.65

>  <ligand_smiles>  (1) 
CC(=O)[C@]1(O)Cc2c(O)c3c(c(O)c2[C@@H](O[C@H]2C[C@H]([NH3+])[C@H](O)[C@H](C)O2)C1)C(=O)c1ccccc1C3=O

>  <ligand_conf_name>  (1) 
MOL_0_isomer_0_conf_0

>  <ligand_molecule_name>  (1) 
MOL_0_isomer_0

$$$$
