MOL_0_isomer_0_conf_0
     RDKit          3D

 53 56  0  0  0  0  0  0  0  0999 V2000
    4.2119    5.8163   -3.4493 C   0  0  0  0  0  0  0  0  0  0  0  0
    4.5141    5.6683   -2.0870 C   0  0  0  0  0  0  0  0  0  0  0  0
    5.2597    6.7288   -1.3972 C   0  0  0  0  0  0  0  0  0  0  0  0
    5.5979    7.7449   -1.9868 O   0  0  0  0  0  0  0  0  0  0  0  0
    5.5360    6.4972   -0.0784 N   0  0  0  0  0  0  0  0  0  0  0  0
    5.1538    5.3771    0.5961 C   0  0  0  0  0  0  0  0  0  0  0  0
    5.5169    5.3088    1.8916 N   0  0  0  0  0  0  0  0  0  0  0  0
    4.4759    4.4205    0.0371 N   0  0  0  0  0  0  0  0  0  0  0  0
    4.1407    4.5349   -1.3291 C   0  0  0  0  0  0  0  0  0  0  0  0
    3.4171    3.4661   -1.9254 C   0  0  0  0  0  0  0  0  0  0  0  0
    3.0231    2.2468   -1.1356 C   0  0  0  0  0  0  0  0  0  0  0  0
    1.9729    2.5469   -0.0544 C   0  0  0  0  0  0  0  0  0  0  0  0
    2.0191    1.5447    1.0620 N   0  0  0  0  0  4  0  0  0  0  0  0
    1.7314    0.1069    0.7639 C   0  0  0  0  0  0  0  0  0  0  0  0
    0.2979   -0.1003    0.2906 C   0  0  0  0  0  0  0  0  0  0  0  0
   -0.7730    0.3242    1.2948 C   0  0  0  0  0  0  0  0  0  0  0  0
   -2.0280   -0.4325    0.8656 C   0  0  0  0  0  0  0  0  0  0  0  0
   -1.5511   -1.6021    0.0049 C   0  0  0  0  0  0  0  0  0  0  0  0
   -0.0299   -1.5773    0.0773 C   0  0  0  0  0  0  0  0  0  0  0  0
    3.1367    3.6217   -3.2897 C   0  0  0  0  0  0  0  0  0  0  0  0
    3.5220    4.7572   -4.0124 C   0  0  0  0  0  0  0  0  0  0  0  0
    3.0816    4.5542   -5.2983 N   0  0  0  0  0  0  0  0  0  0  0  0
    2.4859    3.3813   -5.4103 C   0  0  0  0  0  0  0  0  0  0  0  0
    1.9592    2.8440   -6.5179 N   0  0  0  0  0  0  0  0  0  0  0  0
    1.9924    3.5364   -7.7997 C   0  0  0  0  0  0  0  0  0  0  0  0
    2.4955    2.8091   -4.2111 N   0  0  0  0  0  4  0  0  0  0  0  0
    4.5036    6.6876   -4.0254 H   0  0  0  0  0  0  0  0  0  0  0  0
    6.0577    7.2242    0.3907 H   0  0  0  0  0  0  0  0  0  0  0  0
    5.3149    4.4843    2.4386 H   0  0  0  0  0  0  0  0  0  0  0  0
    6.0640    6.0291    2.3473 H   0  0  0  0  0  0  0  0  0  0  0  0
    2.6362    1.4696   -1.8051 H   0  0  0  0  0  0  0  0  0  0  0  0
    3.9326    1.8286   -0.6851 H   0  0  0  0  0  0  0  0  0  0  0  0
    2.1230    3.5155    0.4302 H   0  0  0  0  0  0  0  0  0  0  0  0
    0.9597    2.5472   -0.4686 H   0  0  0  0  0  0  0  0  0  0  0  0
    1.3773    1.8583    1.8058 H   0  0  0  0  0  0  0  0  0  0  0  0
    2.9510    1.6036    1.5010 H   0  0  0  0  0  0  0  0  0  0  0  0
    1.9242   -0.4347    1.6964 H   0  0  0  0  0  0  0  0  0  0  0  0
    2.4583   -0.2292    0.0180 H   0  0  0  0  0  0  0  0  0  0  0  0
    0.1349    0.4297   -0.6569 H   0  0  0  0  0  0  0  0  0  0  0  0
   -0.9371    1.4063    1.2996 H   0  0  0  0  0  0  0  0  0  0  0  0
   -0.4927    0.0237    2.3120 H   0  0  0  0  0  0  0  0  0  0  0  0
   -2.5931   -0.7777    1.7376 H   0  0  0  0  0  0  0  0  0  0  0  0
   -2.6910    0.2160    0.2819 H   0  0  0  0  0  0  0  0  0  0  0  0
   -1.8815   -1.4566   -1.0303 H   0  0  0  0  0  0  0  0  0  0  0  0
   -1.9578   -2.5583    0.3487 H   0  0  0  0  0  0  0  0  0  0  0  0
    0.3119   -2.1814    0.9268 H   0  0  0  0  0  0  0  0  0  0  0  0
    0.4301   -1.9799   -0.8305 H   0  0  0  0  0  0  0  0  0  0  0  0
    3.2148    5.2064   -6.0630 H   0  0  0  0  0  0  0  0  0  0  0  0
    1.5354    1.9272   -6.4592 H   0  0  0  0  0  0  0  0  0  0  0  0
    1.4393    4.4762   -7.7243 H   0  0  0  0  0  0  0  0  0  0  0  0
    1.5146    2.9013   -8.5503 H   0  0  0  0  0  0  0  0  0  0  0  0
    3.0295    3.7166   -8.0942 H   0  0  0  0  0  0  0  0  0  0  0  0
    2.1164    1.8896   -4.0346 H   0  0  0  0  0  0  0  0  0  0  0  0
 27  1  1  0
  1  2  2  0
  2  3  1  0
  3  4  2  0
  3  5  1  0
  5 28  1  0
  5  6  1  0
  6  7  1  0
  7 29  1  0
  7 30  1  0
  6  8  2  0
  2  9  1  0
  8  9  1  0
  9 10  2  0
 10 11  1  0
 11 31  1  0
 11 32  1  0
 11 12  1  0
 12 33  1  0
 12 34  1  0
 12 13  1  0
 13 35  1  0
 13 36  1  0
 13 14  1  0
 14 37  1  0
 14 38  1  0
 14 15  1  0
 15 39  1  0
 15 16  1  0
 16 40  1  0
 16 41  1  0
 16 17  1  0
 17 42  1  0
 17 43  1  0
 17 18  1  0
 18 44  1  0
 18 45  1  0
 15 19  1  0
 18 19  1  0
 19 46  1  0
 19 47  1  0
 10 20  1  0
  1 21  1  0
 20 21  2  0
 21 22  1  0
 22 48  1  0
 22 23  1  0
 23 24  1  0
 24 49  1  0
 24 25  1  0
 25 50  1  0
 25 51  1  0
 25 52  1  0
 20 26  1  0
 23 26  2  0
 26 53  1  0
M  CHG  2  13   1  26   1
M  END
>  <conformer_energy>  (1) 
-155.27

>  <ligand_smiles>  (1) 
CNc1[nH]c2cc3c(=O)[nH]c(N)nc3c(CC[NH2+]CC3CCCC3)c2[nH+]1

>  <ligand_conf_name>  (1) 
MOL_0_isomer_0_conf_0

>  <ligand_molecule_name>  (1) 
MOL_0_isomer_0

$$$$
