MOL_0_isomer_0_conf_0
     RDKit          3D

 41 44  0  0  0  0  0  0  0  0999 V2000
   -3.1916   -3.2804   -3.4629 C   0  0  0  0  0  0  0  0  0  0  0  0
   -3.3662   -3.2118   -2.0823 C   0  0  0  0  0  0  0  0  0  0  0  0
   -3.0319   -2.0445   -1.3927 C   0  0  0  0  0  0  0  0  0  0  0  0
   -2.5277   -0.9253   -2.0743 C   0  0  0  0  0  0  0  0  0  0  0  0
   -2.1341    0.3185   -1.2921 C   0  0  2  0  0  0  0  0  0  0  0  0
   -2.5809    1.6311   -2.0300 C   0  0  0  0  0  0  0  0  0  0  0  0
   -1.6455    2.2081   -2.6763 O   0  0  0  0  0  0  0  0  0  0  0  0
   -3.7799    1.9945   -1.8662 O   0  0  0  0  0  1  0  0  0  0  0  0
   -0.6801    0.3049   -1.0588 N   0  0  0  0  0  0  0  0  0  0  0  0
   -0.0680   -0.3055   -0.0052 C   0  0  0  0  0  0  0  0  0  0  0  0
   -0.6174   -0.9693    0.8651 O   0  0  0  0  0  0  0  0  0  0  0  0
    1.3986   -0.1692    0.0180 C   0  0  0  0  0  0  0  0  0  0  0  0
    2.1448   -1.3603   -0.0972 C   0  0  0  0  0  0  0  0  0  0  0  0
    3.5496   -1.3433   -0.1019 C   0  0  0  0  0  0  0  0  0  0  0  0
    4.2334   -0.1372    0.0167 C   0  0  0  0  0  0  0  0  0  0  0  0
    3.4729    1.0140    0.1446 C   0  0  0  0  0  0  0  0  0  0  0  0
    2.0641    1.0415    0.1562 C   0  0  0  0  0  0  0  0  0  0  0  0
    1.6337    2.4203    0.3455 C   0  0  0  0  0  0  0  0  0  0  0  0
    0.3833    3.0030    0.4592 C   0  0  0  0  0  0  0  0  0  0  0  0
    0.2947    4.3936    0.6275 C   0  0  0  0  0  0  0  0  0  0  0  0
    1.4463    5.1964    0.6999 C   0  0  0  0  0  0  0  0  0  0  0  0
    2.7110    4.6219    0.6047 C   0  0  0  0  0  0  0  0  0  0  0  0
    2.7665    3.2509    0.4291 C   0  0  0  0  0  0  0  0  0  0  0  0
    3.9623    2.3971    0.3088 C   0  0  0  0  0  0  0  0  0  0  0  0
    5.1216    2.7539    0.3488 O   0  0  0  0  0  0  0  0  0  0  0  0
   -2.3396   -1.0179   -3.4622 C   0  0  0  0  0  0  0  0  0  0  0  0
   -2.6762   -2.1846   -4.1523 C   0  0  0  0  0  0  0  0  0  0  0  0
   -3.4546   -4.1858   -4.0005 H   0  0  0  0  0  0  0  0  0  0  0  0
   -3.7595   -4.0641   -1.5370 H   0  0  0  0  0  0  0  0  0  0  0  0
   -3.1546   -2.0043   -0.3121 H   0  0  0  0  0  0  0  0  0  0  0  0
   -2.6280    0.3140   -0.3119 H   0  0  0  0  0  0  0  0  0  0  0  0
   -0.1810    0.8837   -1.7300 H   0  0  0  0  0  0  0  0  0  0  0  0
    1.6179   -2.3094   -0.1922 H   0  0  0  0  0  0  0  0  0  0  0  0
    4.0992   -2.2763   -0.1992 H   0  0  0  0  0  0  0  0  0  0  0  0
    5.3172   -0.0918    0.0175 H   0  0  0  0  0  0  0  0  0  0  0  0
   -0.5346    2.4261    0.4078 H   0  0  0  0  0  0  0  0  0  0  0  0
   -0.6906    4.8541    0.6874 H   0  0  0  0  0  0  0  0  0  0  0  0
    1.3426    6.2714    0.8235 H   0  0  0  0  0  0  0  0  0  0  0  0
    3.6152    5.2170    0.6577 H   0  0  0  0  0  0  0  0  0  0  0  0
   -1.9326   -0.1709   -4.0131 H   0  0  0  0  0  0  0  0  0  0  0  0
   -2.5352   -2.2303   -5.2280 H   0  0  0  0  0  0  0  0  0  0  0  0
 28  1  1  0
  1  2  2  0
  2 29  1  0
  2  3  1  0
  3 30  1  0
  3  4  2  0
  4  5  1  0
  5 31  1  1
  5  6  1  0
  6  7  2  0
  6  8  1  0
  5  9  1  0
  9 32  1  0
  9 10  1  0
 10 11  2  0
 10 12  1  0
 12 13  2  0
 13 33  1  0
 13 14  1  0
 14 34  1  0
 14 15  2  0
 15 35  1  0
 15 16  1  0
 12 17  1  0
 16 17  2  0
 17 18  1  0
 18 19  2  0
 19 36  1  0
 19 20  1  0
 20 37  1  0
 20 21  2  0
 21 38  1  0
 21 22  1  0
 22 39  1  0
 18 23  1  0
 22 23  2  0
 16 24  1  0
 23 24  1  0
 24 25  2  0
  4 26  1  0
 26 40  1  0
  1 27  1  0
 26 27  2  0
 27 41  1  0
M  CHG  1   8  -1
M  END
>  <conformer_energy>  (1) 
147.99

>  <ligand_smiles>  (1) 
O=C(N[C@@H](C(=O)[O-])c1ccccc1)c1cccc2c1-c1ccccc1C2=O

>  <ligand_conf_name>  (1) 
MOL_0_isomer_0_conf_0

>  <ligand_molecule_name>  (1) 
MOL_0_isomer_0

$$$$
