MOL_0_isomer_0_conf_0
     RDKit          3D

 49 48  0  0  0  0  0  0  0  0999 V2000
    4.7582   -4.8083    0.3812 C   0  0  0  0  0  0  0  0  0  0  0  0
    3.5452   -5.2644    0.7534 C   0  0  0  0  0  0  0  0  0  0  0  0
    2.2779   -4.4360    0.8225 C   0  0  0  0  0  0  0  0  0  0  0  0
    3.3408   -6.6994    1.1546 C   0  0  0  0  0  0  0  0  0  0  0  0
    5.1119   -3.3975   -0.0103 C   0  0  0  0  0  0  0  0  0  0  0  0
    5.5184   -3.3110   -1.4880 C   0  0  0  0  0  0  0  0  0  0  0  0
    5.6744   -1.8760   -1.9624 C   0  0  0  0  0  0  0  0  0  0  0  0
    4.8031   -1.3722   -2.8594 C   0  0  0  0  0  0  0  0  0  0  0  0
    4.6831    0.0542   -3.3276 C   0  0  0  0  0  0  0  0  0  0  0  0
    3.2245    0.5475   -3.3698 C   0  0  0  0  0  0  0  0  0  0  0  0
    2.4965    0.4740   -2.0441 C   0  0  0  0  0  0  0  0  0  0  0  0
    1.4536   -0.3675   -1.8873 C   0  0  0  0  0  0  0  0  0  0  0  0
    0.6220   -0.6319   -0.6521 C   0  0  0  0  0  0  0  0  0  0  0  0
   -0.7045   -0.2638   -0.9606 O   0  0  0  0  0  0  0  0  0  0  0  0
   -1.6296    0.2491    0.2761 P   0  0  2  0  0  5  0  0  0  0  0  0
   -2.9695    0.6399   -0.3519 O   0  0  0  0  0  0  0  0  0  0  0  0
   -0.8986    1.3866    0.9787 O   0  0  0  0  0  1  0  0  0  0  0  0
   -1.8442   -1.0365    1.2020 O   0  0  0  0  0  0  0  0  0  0  0  0
   -1.0364   -2.3468    1.6814 P   0  0  0  0  0  5  0  0  0  0  0  0
    0.3515   -1.8951    2.1230 O   0  0  0  0  0  0  0  0  0  0  0  0
   -1.0048   -3.2969    0.4850 O   0  0  0  0  0  1  0  0  0  0  0  0
   -1.8638   -2.9136    2.8387 O   0  0  0  0  0  1  0  0  0  0  0  0
    2.9917    1.3939   -0.9630 C   0  0  0  0  0  0  0  0  0  0  0  0
    6.7966   -1.0993   -1.3354 C   0  0  0  0  0  0  0  0  0  0  0  0
    5.5929   -5.5040    0.3735 H   0  0  0  0  0  0  0  0  0  0  0  0
    2.3932   -3.4252    0.4290 H   0  0  0  0  0  0  0  0  0  0  0  0
    1.9397   -4.3595    1.8608 H   0  0  0  0  0  0  0  0  0  0  0  0
    1.4877   -4.9167    0.2356 H   0  0  0  0  0  0  0  0  0  0  0  0
    4.2682   -7.2799    1.1035 H   0  0  0  0  0  0  0  0  0  0  0  0
    2.9692   -6.7573    2.1830 H   0  0  0  0  0  0  0  0  0  0  0  0
    2.6124   -7.1798    0.4931 H   0  0  0  0  0  0  0  0  0  0  0  0
    5.9498   -3.0774    0.6220 H   0  0  0  0  0  0  0  0  0  0  0  0
    4.2994   -2.6954    0.1965 H   0  0  0  0  0  0  0  0  0  0  0  0
    6.4633   -3.8457   -1.6501 H   0  0  0  0  0  0  0  0  0  0  0  0
    4.7702   -3.8327   -2.1000 H   0  0  0  0  0  0  0  0  0  0  0  0
    4.0188   -2.0310   -3.2366 H   0  0  0  0  0  0  0  0  0  0  0  0
    5.0973    0.1178   -4.3410 H   0  0  0  0  0  0  0  0  0  0  0  0
    5.2678    0.7362   -2.7025 H   0  0  0  0  0  0  0  0  0  0  0  0
    2.6834   -0.0258   -4.1348 H   0  0  0  0  0  0  0  0  0  0  0  0
    3.2125    1.5873   -3.7211 H   0  0  0  0  0  0  0  0  0  0  0  0
    1.1338   -0.9902   -2.7190 H   0  0  0  0  0  0  0  0  0  0  0  0
    0.6667   -1.7052   -0.4657 H   0  0  0  0  0  0  0  0  0  0  0  0
    0.9985   -0.1091    0.2278 H   0  0  0  0  0  0  0  0  0  0  0  0
    2.2918    1.5046   -0.1319 H   0  0  0  0  0  0  0  0  0  0  0  0
    3.1513    2.3989   -1.3690 H   0  0  0  0  0  0  0  0  0  0  0  0
    3.9427    1.0310   -0.5605 H   0  0  0  0  0  0  0  0  0  0  0  0
    6.5479   -0.8291   -0.3044 H   0  0  0  0  0  0  0  0  0  0  0  0
    7.0354   -0.1823   -1.8805 H   0  0  0  0  0  0  0  0  0  0  0  0
    7.7121   -1.7009   -1.3242 H   0  0  0  0  0  0  0  0  0  0  0  0
 25  1  1  0
  1  2  2  3
  2  3  1  0
  3 26  1  0
  3 27  1  0
  3 28  1  0
  2  4  1  0
  4 29  1  0
  4 30  1  0
  4 31  1  0
  1  5  1  0
  5 32  1  0
  5 33  1  0
  5  6  1  0
  6 34  1  0
  6 35  1  0
  6  7  1  0
  7  8  2  0
  8 36  1  0
  8  9  1  0
  9 37  1  0
  9 38  1  0
  9 10  1  0
 10 39  1  0
 10 40  1  0
 10 11  1  0
 11 12  2  0
 12 41  1  0
 12 13  1  0
 13 42  1  0
 13 43  1  0
 13 14  1  0
 14 15  1  0
 15 16  2  0
 15 17  1  1
 15 18  1  0
 18 19  1  0
 19 20  2  0
 19 21  1  0
 19 22  1  0
 11 23  1  0
 23 44  1  0
 23 45  1  0
 23 46  1  0
  7 24  1  0
 24 47  1  0
 24 48  1  0
 24 49  1  0
M  CHG  3  17  -1  21  -1  22  -1
M  END
>  <conformer_energy>  (1) 
14.84

>  <ligand_smiles>  (1) 
CC(C)=CCC/C(C)=C/CC/C(C)=C/CO[P@](=O)([O-])OP(=O)([O-])[O-]

>  <ligand_conf_name>  (1) 
MOL_0_isomer_0_conf_0

>  <ligand_molecule_name>  (1) 
MOL_0_isomer_0

$$$$
