1KZK - prepared_ligand_conf_0
     RDKit          3D

 78 81  0  0  0  0  0  0  0  0999 V2000
    0.5977   -7.9278    0.0163 O   0  0  0  0  0  0  0  0  0  0  0  0
    0.2839   -6.6046    0.1626 C   0  0  0  0  0  0  0  0  0  0  0  0
   -0.8754   -6.3426    0.8952 C   0  0  0  0  0  0  0  0  0  0  0  0
   -1.3139   -5.0338    1.0695 C   0  0  0  0  0  0  0  0  0  0  0  0
   -0.5886   -3.9867    0.5083 C   0  0  0  0  0  0  0  0  0  0  0  0
    0.5905   -4.2506   -0.2106 C   0  0  0  0  0  0  0  0  0  0  0  0
    1.3018   -3.0936   -0.8108 C   0  0  0  0  0  0  0  0  0  0  0  0
    1.6471   -3.0969   -1.9868 O   0  0  0  0  0  0  0  0  0  0  0  0
    1.5483   -2.0499    0.0510 N   0  0  0  0  0  0  0  0  0  0  0  0
    2.1906   -0.8143   -0.4084 C   0  0  1  0  0  0  0  0  0  0  0  0
    1.8554    0.3606    0.5390 C   0  0  0  0  0  0  0  0  0  0  0  0
    0.3841    0.7125    0.5493 C   0  0  0  0  0  0  0  0  0  0  0  0
   -0.3966    0.4739    1.6883 C   0  0  0  0  0  0  0  0  0  0  0  0
   -1.7548    0.7912    1.6939 C   0  0  0  0  0  0  0  0  0  0  0  0
   -2.3456    1.3495    0.5616 C   0  0  0  0  0  0  0  0  0  0  0  0
   -1.5783    1.5955   -0.5750 C   0  0  0  0  0  0  0  0  0  0  0  0
   -0.2190    1.2809   -0.5828 C   0  0  0  0  0  0  0  0  0  0  0  0
    3.7171   -1.0238   -0.5609 C   0  0  2  0  0  0  0  0  0  0  0  0
    4.3487   -1.0477    0.7290 O   0  0  0  0  0  0  0  0  0  0  0  0
    4.3085    0.1085   -1.4167 C   0  0  0  0  0  0  0  0  0  0  0  0
    4.8788    1.0490   -0.8472 O   0  0  0  0  0  0  0  0  0  0  0  0
    4.1859    0.0622   -2.7858 N   0  0  0  0  0  0  0  0  0  0  0  0
    3.5598   -1.0020   -3.5556 C   0  0  0  0  0  0  0  0  0  0  0  0
    4.0166   -0.7619   -5.2902 S   0  0  0  0  0  0  0  0  0  0  0  0
    5.0072    0.7441   -4.9784 C   0  0  0  0  0  0  0  0  0  0  0  0
    6.4859    0.3177   -4.9434 C   0  0  0  0  0  0  0  0  0  0  0  0
    4.7993    1.7627   -6.0995 C   0  0  0  0  0  0  0  0  0  0  0  0
    4.5714    1.2313   -3.5840 C   0  0  1  0  0  0  0  0  0  0  0  0
    3.3526    2.1876   -3.5725 C   0  0  0  0  0  0  0  0  0  0  0  0
    2.2411    1.8762   -3.9954 O   0  0  0  0  0  0  0  0  0  0  0  0
    3.5890    3.4021   -2.9663 N   0  0  0  0  0  0  0  0  0  0  0  0
    2.5411    4.3868   -2.8381 C   0  0  0  0  0  0  0  0  0  0  0  0
    3.0698    5.6468   -2.1994 C   0  0  0  0  0  0  0  0  0  0  0  0
    3.5369    6.6796   -3.0329 C   0  0  0  0  0  0  0  0  0  0  0  0
    4.0695    7.8504   -2.4946 C   0  0  0  0  0  0  0  0  0  0  0  0
    4.1463    8.0035   -1.1144 C   0  0  0  0  0  0  0  0  0  0  0  0
    3.6921    6.9866   -0.2719 C   0  0  0  0  0  0  0  0  0  0  0  0
    3.1597    5.7982   -0.7984 C   0  0  0  0  0  0  0  0  0  0  0  0
    2.6818    4.7278    0.1463 C   0  0  0  0  0  0  0  0  0  0  0  0
    1.0600   -5.5701   -0.3815 C   0  0  0  0  0  0  0  0  0  0  0  0
    2.3274   -5.8509   -1.1414 C   0  0  0  0  0  0  0  0  0  0  0  0
    1.2080   -8.0302   -0.7295 H   0  0  0  0  0  0  0  0  0  0  0  0
   -1.4454   -7.1677    1.3169 H   0  0  0  0  0  0  0  0  0  0  0  0
   -2.2284   -4.8336    1.6216 H   0  0  0  0  0  0  0  0  0  0  0  0
   -0.9587   -2.9687    0.6108 H   0  0  0  0  0  0  0  0  0  0  0  0
    1.3507   -2.1584    1.0387 H   0  0  0  0  0  0  0  0  0  0  0  0
    1.7620   -0.5977   -1.3935 H   0  0  0  0  0  0  0  0  0  0  0  0
    2.4069    1.2631    0.2454 H   0  0  0  0  0  0  0  0  0  0  0  0
    2.1789    0.1254    1.5612 H   0  0  0  0  0  0  0  0  0  0  0  0
    0.0487    0.0451    2.5837 H   0  0  0  0  0  0  0  0  0  0  0  0
   -2.3526    0.6064    2.5821 H   0  0  0  0  0  0  0  0  0  0  0  0
   -3.4031    1.5970    0.5662 H   0  0  0  0  0  0  0  0  0  0  0  0
   -2.0372    2.0310   -1.4579 H   0  0  0  0  0  0  0  0  0  0  0  0
    0.3636    1.4800   -1.4808 H   0  0  0  0  0  0  0  0  0  0  0  0
    3.9484   -1.9839   -1.0287 H   0  0  0  0  0  0  0  0  0  0  0  0
    4.8045   -0.1867    0.8209 H   0  0  0  0  0  0  0  0  0  0  0  0
    2.4742   -0.9322   -3.4515 H   0  0  0  0  0  0  0  0  0  0  0  0
    3.9023   -1.9783   -3.2049 H   0  0  0  0  0  0  0  0  0  0  0  0
    7.1295    1.1839   -4.7475 H   0  0  0  0  0  0  0  0  0  0  0  0
    6.8071   -0.1193   -5.8963 H   0  0  0  0  0  0  0  0  0  0  0  0
    6.6871   -0.4157   -4.1544 H   0  0  0  0  0  0  0  0  0  0  0  0
    3.7452    2.0202   -6.2458 H   0  0  0  0  0  0  0  0  0  0  0  0
    5.3398    2.6907   -5.8802 H   0  0  0  0  0  0  0  0  0  0  0  0
    5.1773    1.3856   -7.0572 H   0  0  0  0  0  0  0  0  0  0  0  0
    5.4075    1.7473   -3.0940 H   0  0  0  0  0  0  0  0  0  0  0  0
    4.4680    3.5747   -2.4917 H   0  0  0  0  0  0  0  0  0  0  0  0
    1.7168    3.9579   -2.2565 H   0  0  0  0  0  0  0  0  0  0  0  0
    2.1353    4.5952   -3.8363 H   0  0  0  0  0  0  0  0  0  0  0  0
    3.4876    6.5724   -4.1156 H   0  0  0  0  0  0  0  0  0  0  0  0
    4.4242    8.6410   -3.1525 H   0  0  0  0  0  0  0  0  0  0  0  0
    4.5572    8.9170   -0.6911 H   0  0  0  0  0  0  0  0  0  0  0  0
    3.7583    7.1295    0.8057 H   0  0  0  0  0  0  0  0  0  0  0  0
    2.9015    4.9825    1.1886 H   0  0  0  0  0  0  0  0  0  0  0  0
    3.1771    3.7751   -0.0669 H   0  0  0  0  0  0  0  0  0  0  0  0
    1.5972    4.6015    0.0593 H   0  0  0  0  0  0  0  0  0  0  0  0
    2.1063   -5.9819   -2.2063 H   0  0  0  0  0  0  0  0  0  0  0  0
    2.8269   -6.7527   -0.7698 H   0  0  0  0  0  0  0  0  0  0  0  0
    3.0593   -5.0447   -1.0198 H   0  0  0  0  0  0  0  0  0  0  0  0
 42  1  1  0
  1  2  1  0
  2  3  2  0
  3 43  1  0
  3  4  1  0
  4 44  1  0
  4  5  2  0
  5 45  1  0
  5  6  1  0
  6  7  1  0
  7  8  2  0
  7  9  1  0
  9 46  1  0
  9 10  1  0
 10 47  1  6
 10 11  1  0
 11 48  1  0
 11 49  1  0
 11 12  1  0
 12 13  2  0
 13 50  1  0
 13 14  1  0
 14 51  1  0
 14 15  2  0
 15 52  1  0
 15 16  1  0
 16 53  1  0
 12 17  1  0
 16 17  2  0
 17 54  1  0
 10 18  1  0
 18 55  1  6
 18 19  1  0
 19 56  1  0
 18 20  1  0
 20 21  2  0
 20 22  1  0
 22 23  1  0
 23 57  1  0
 23 58  1  0
 23 24  1  0
 24 25  1  0
 25 26  1  0
 26 59  1  0
 26 60  1  0
 26 61  1  0
 25 27  1  0
 27 62  1  0
 27 63  1  0
 27 64  1  0
 22 28  1  0
 25 28  1  0
 28 65  1  1
 28 29  1  0
 29 30  2  0
 29 31  1  0
 31 66  1  0
 31 32  1  0
 32 67  1  0
 32 68  1  0
 32 33  1  0
 33 34  2  0
 34 69  1  0
 34 35  1  0
 35 70  1  0
 35 36  2  0
 36 71  1  0
 36 37  1  0
 37 72  1  0
 33 38  1  0
 37 38  2  0
 38 39  1  0
 39 73  1  0
 39 74  1  0
 39 75  1  0
  2 40  1  0
  6 40  2  0
 40 41  1  0
 41 76  1  0
 41 77  1  0
 41 78  1  0
M  END
>  <conformer_energy>  (1) 
81.78

>  <ligand_smiles>  (1) 
Cc1ccccc1CNC(=O)[C@H]1N(C(=O)[C@@H](O)[C@H](Cc2ccccc2)NC(=O)c2cccc(O)c2C)CSC1(C)C

>  <ligand_conf_name>  (1) 
1KZK - prepared_ligand_conf_0

>  <ligand_molecule_name>  (1) 
1KZK - prepared_ligand

$$$$
