MOL_0_isomer_0_conf_0
     RDKit          3D

 43 45  0  0  0  0  0  0  0  0999 V2000
    2.3319   -0.2292   -1.0092 O   0  0  0  0  0  0  0  0  0  0  0  0
    1.5478    0.9359   -0.6441 C   0  0  1  0  0  0  0  0  0  0  0  0
    2.4472    2.1558   -0.6518 C   0  0  1  0  0  0  0  0  0  0  0  0
    3.8124    1.8248   -0.3459 O   0  0  0  0  0  0  0  0  0  0  0  0
    2.2862    2.6325   -2.0857 C   0  0  2  0  0  0  0  0  0  0  0  0
    2.5594    4.0425   -2.2800 N   0  0  0  0  0  0  0  0  0  0  0  0
    1.8414    5.0908   -1.7565 C   0  0  0  0  0  0  0  0  0  0  0  0
    2.3281    6.2607   -2.1275 N   0  0  0  0  0  0  0  0  0  0  0  0
    3.4076    5.9465   -2.9235 C   0  0  0  0  0  0  0  0  0  0  0  0
    4.3332    6.7543   -3.6060 C   0  0  0  0  0  0  0  0  0  0  0  0
    4.2905    8.1320   -3.5595 N   0  0  0  0  0  0  0  0  0  0  0  0
    5.3085    6.1623   -4.3334 N   0  0  0  0  0  0  0  0  0  0  0  0
    5.3346    4.8104   -4.3602 C   0  0  0  0  0  0  0  0  0  0  0  0
    4.5081    3.9370   -3.7595 N   0  0  0  0  0  0  0  0  0  0  0  0
    3.5650    4.5756   -3.0428 C   0  0  0  0  0  0  0  0  0  0  0  0
    0.9261    2.3816   -2.4714 O   0  0  0  0  0  0  0  0  0  0  0  0
    0.4961    1.1978   -1.7323 C   0  0  2  0  0  0  0  0  0  0  0  0
   -0.9442    1.3880   -1.2578 C   0  0  0  0  0  0  0  0  0  0  0  0
   -1.6785    0.1779   -1.2206 O   0  0  0  0  0  0  0  0  0  0  0  0
   -1.3256   -0.9886   -0.1344 P   0  0  1  0  0  5  0  0  0  0  0  0
   -2.3509   -2.0769   -0.4266 O   0  0  0  0  0  0  0  0  0  0  0  0
    0.1300   -1.3678   -0.3606 O   0  0  0  0  0  1  0  0  0  0  0  0
   -1.6709   -0.2633    1.2426 O   0  0  0  0  0  0  0  0  0  0  0  0
   -0.8955    0.5698    2.3932 P   0  0  2  0  0  5  0  0  0  0  0  0
   -0.2371    1.7701    1.7251 O   0  0  0  0  0  0  0  0  0  0  0  0
    0.0018   -0.4335    3.1079 O   0  0  0  0  0  1  0  0  0  0  0  0
   -2.1680    0.9700    3.2897 O   0  0  0  0  0  0  0  0  0  0  0  0
   -2.5934    2.0745    4.3914 P   0  0  0  0  0  5  0  0  0  0  0  0
   -3.8798    1.5110    5.0180 O   0  0  0  0  0  0  0  0  0  0  0  0
   -1.4773    2.1911    5.4268 O   0  0  0  0  0  1  0  0  0  0  0  0
   -2.8798    3.3782    3.6439 O   0  0  0  0  0  1  0  0  0  0  0  0
    1.6622   -0.9439   -0.7698 H   0  0  0  0  0  0  0  0  0  0  0  0
    1.1745    0.7302    0.3524 H   0  0  0  0  0  0  0  0  0  0  0  0
    2.0886    2.8971    0.0708 H   0  0  0  0  0  0  0  0  0  0  0  0
    3.7544    0.8671   -0.1288 H   0  0  0  0  0  0  0  0  0  0  0  0
    2.9384    2.0691   -2.7656 H   0  0  0  0  0  0  0  0  0  0  0  0
    0.9808    4.9313   -1.1135 H   0  0  0  0  0  0  0  0  0  0  0  0
    5.0138    8.6544   -4.0177 H   0  0  0  0  0  0  0  0  0  0  0  0
    3.5819    8.5484   -2.9689 H   0  0  0  0  0  0  0  0  0  0  0  0
    6.1316    4.3683   -4.9499 H   0  0  0  0  0  0  0  0  0  0  0  0
    0.5090    0.3794   -2.4636 H   0  0  0  0  0  0  0  0  0  0  0  0
   -1.4610    2.0169   -1.9936 H   0  0  0  0  0  0  0  0  0  0  0  0
   -1.0381    1.9422   -0.3302 H   0  0  0  0  0  0  0  0  0  0  0  0
 32  1  1  0
  1  2  1  0
  2 33  1  1
  2  3  1  0
  3 34  1  1
  3  4  1  0
  4 35  1  0
  3  5  1  0
  5 36  1  6
  5  6  1  0
  6  7  1  0
  7 37  1  0
  7  8  2  0
  8  9  1  0
  9 10  1  0
 10 11  1  0
 11 38  1  0
 11 39  1  0
 10 12  2  0
 12 13  1  0
 13 40  1  0
 13 14  2  0
  9 15  2  0
  6 15  1  0
 14 15  1  0
  5 16  1  0
  2 17  1  0
 16 17  1  0
 17 41  1  6
 17 18  1  0
 18 42  1  0
 18 43  1  0
 18 19  1  0
 19 20  1  0
 20 21  2  0
 20 22  1  1
 20 23  1  0
 23 24  1  0
 24 25  2  0
 24 26  1  1
 24 27  1  0
 27 28  1  0
 28 29  2  0
 28 30  1  0
 28 31  1  0
M  CHG  4  22  -1  26  -1  30  -1  31  -1
M  END
>  <conformer_energy>  (1) 
74.68

>  <ligand_smiles>  (1) 
Nc1ncnc2c1ncn2[C@@H]1O[C@H](CO[P@@](=O)([O-])O[P@](=O)([O-])OP(=O)([O-])[O-])[C@@H](O)[C@H]1O

>  <ligand_conf_name>  (1) 
MOL_0_isomer_0_conf_0

>  <ligand_molecule_name>  (1) 
MOL_0_isomer_0

$$$$
