1S3V - prepared_ligand_conf_0
     RDKit          3D

 57 59  0  0  0  0  0  0  0  0999 V2000
    3.7204    0.6018   -0.2222 C   0  0  0  0  0  0  0  0  0  0  0  0
    2.8742    1.0106   -1.2669 C   0  0  0  0  0  0  0  0  0  0  0  0
    3.2658    1.7569   -2.3504 O   0  0  0  0  0  0  0  0  0  0  0  0
    4.5582    2.3471   -2.3135 C   0  0  0  0  0  0  0  0  0  0  0  0
    1.5319    0.6261   -1.2419 C   0  0  0  0  0  0  0  0  0  0  0  0
    0.6762    1.0552   -2.2276 O   0  0  0  0  0  0  0  0  0  0  0  0
    0.5509    0.0549   -3.2342 C   0  0  0  0  0  0  0  0  0  0  0  0
    1.0415   -0.1102   -0.1655 C   0  0  0  0  0  0  0  0  0  0  0  0
   -0.2799   -0.4766   -0.1615 O   0  0  0  0  0  0  0  0  0  0  0  0
   -0.9767    0.0809    0.9553 C   0  0  0  0  0  0  0  0  0  0  0  0
    1.9068   -0.5249    0.8544 C   0  0  0  0  0  0  0  0  0  0  0  0
    3.2728   -0.1818    0.8644 C   0  0  0  0  0  0  0  0  0  0  0  0
    4.1255   -0.5948    1.8891 N   0  0  0  0  0  0  0  0  0  0  0  0
    3.5936   -1.3548    3.0229 C   0  0  0  0  0  0  0  0  0  0  0  0
    5.5526   -0.2657    1.9228 C   0  0  0  0  0  0  0  0  0  0  0  0
    6.3780   -1.1899    1.0051 C   0  0  1  0  0  0  0  0  0  0  0  0
    7.7958   -0.6107    0.8159 C   0  0  0  0  0  0  0  0  0  0  0  0
    8.7500   -1.5719    0.1717 C   0  0  0  0  0  0  0  0  0  0  0  0
    8.4953   -2.8803    0.0405 C   0  0  0  0  0  0  0  0  0  0  0  0
    9.4220   -3.6700   -0.5951 N   0  0  0  0  0  0  0  0  0  0  0  0
   10.4213   -3.2295   -1.5041 C   0  0  2  0  0  0  0  0  0  0  0  0
   11.6043   -4.0128   -1.5850 N   0  0  0  0  0  0  0  0  0  0  0  0
   10.8665   -1.9279   -1.0653 N   0  0  0  0  0  0  0  0  0  0  0  0
   10.1396   -1.0963   -0.3508 C   0  0  0  0  0  0  0  0  0  0  0  0
   10.5561    0.1117   -0.0384 N   0  0  0  0  0  0  0  0  0  0  0  0
    7.2453   -3.5266    0.5848 C   0  0  0  0  0  0  0  0  0  0  0  0
    6.4702   -2.6245    1.5489 C   0  0  0  0  0  0  0  0  0  0  0  0
    4.7599    0.8954   -0.2644 H   0  0  0  0  0  0  0  0  0  0  0  0
    4.6622    2.9845   -3.1989 H   0  0  0  0  0  0  0  0  0  0  0  0
    5.3406    1.5806   -2.3637 H   0  0  0  0  0  0  0  0  0  0  0  0
    4.6826    2.9865   -1.4324 H   0  0  0  0  0  0  0  0  0  0  0  0
   -0.1516    0.4260   -3.9876 H   0  0  0  0  0  0  0  0  0  0  0  0
    0.1474   -0.8789   -2.8305 H   0  0  0  0  0  0  0  0  0  0  0  0
    1.5102   -0.1286   -3.7262 H   0  0  0  0  0  0  0  0  0  0  0  0
   -2.0468    0.0608    0.7265 H   0  0  0  0  0  0  0  0  0  0  0  0
   -0.6911    1.1240    1.1443 H   0  0  0  0  0  0  0  0  0  0  0  0
   -0.8102   -0.5294    1.8510 H   0  0  0  0  0  0  0  0  0  0  0  0
    1.4825   -1.1384    1.6440 H   0  0  0  0  0  0  0  0  0  0  0  0
    4.3759   -1.6088    3.7483 H   0  0  0  0  0  0  0  0  0  0  0  0
    3.1599   -2.3031    2.6884 H   0  0  0  0  0  0  0  0  0  0  0  0
    2.8372   -0.7739    3.5625 H   0  0  0  0  0  0  0  0  0  0  0  0
    5.9382   -0.3411    2.9477 H   0  0  0  0  0  0  0  0  0  0  0  0
    5.7030    0.7873    1.6564 H   0  0  0  0  0  0  0  0  0  0  0  0
    5.9020   -1.2411    0.0158 H   0  0  0  0  0  0  0  0  0  0  0  0
    7.7173    0.2926    0.1971 H   0  0  0  0  0  0  0  0  0  0  0  0
    8.2107   -0.3078    1.7854 H   0  0  0  0  0  0  0  0  0  0  0  0
    9.2280   -4.6668   -0.6410 H   0  0  0  0  0  0  0  0  0  0  0  0
    9.9834   -3.1194   -2.5036 H   0  0  0  0  0  0  0  0  0  0  0  0
   12.0261   -4.0977   -0.6658 H   0  0  0  0  0  0  0  0  0  0  0  0
   12.2782   -3.6514   -2.2457 H   0  0  0  0  0  0  0  0  0  0  0  0
   11.7720   -1.6359   -1.3835 H   0  0  0  0  0  0  0  0  0  0  0  0
    9.9926    0.7222    0.5394 H   0  0  0  0  0  0  0  0  0  0  0  0
   11.4535    0.4667   -0.3420 H   0  0  0  0  0  0  0  0  0  0  0  0
    6.5986   -3.7901   -0.2620 H   0  0  0  0  0  0  0  0  0  0  0  0
    7.4950   -4.4610    1.1023 H   0  0  0  0  0  0  0  0  0  0  0  0
    5.4739   -3.0520    1.7028 H   0  0  0  0  0  0  0  0  0  0  0  0
    6.9701   -2.6182    2.5279 H   0  0  0  0  0  0  0  0  0  0  0  0
 28  1  1  0
  1  2  2  0
  2  3  1  0
  3  4  1  0
  4 29  1  0
  4 30  1  0
  4 31  1  0
  2  5  1  0
  5  6  1  0
  6  7  1  0
  7 32  1  0
  7 33  1  0
  7 34  1  0
  5  8  2  0
  8  9  1  0
  9 10  1  0
 10 35  1  0
 10 36  1  0
 10 37  1  0
  8 11  1  0
 11 38  1  0
  1 12  1  0
 11 12  2  0
 12 13  1  0
 13 14  1  0
 14 39  1  0
 14 40  1  0
 14 41  1  0
 13 15  1  0
 15 42  1  0
 15 43  1  0
 15 16  1  0
 16 44  1  6
 16 17  1  0
 17 45  1  0
 17 46  1  0
 17 18  1  0
 18 19  2  0
 19 20  1  0
 20 47  1  0
 20 21  1  0
 21 48  1  6
 21 22  1  0
 22 49  1  0
 22 50  1  0
 21 23  1  0
 23 51  1  0
 18 24  1  0
 23 24  2  0
 24 25  1  0
 25 52  1  0
 25 53  1  0
 19 26  1  0
 26 54  1  0
 26 55  1  0
 16 27  1  0
 26 27  1  0
 27 56  1  0
 27 57  1  0
M  CHG  1  23   1
M  END
>  <conformer_energy>  (1) 
-143.72

>  <ligand_smiles>  (1) 
COc1cc(N(C)C[C@@H]2CCC3=C(C2)C(N)=[NH+][C@@H](N)N3)cc(OC)c1OC

>  <ligand_conf_name>  (1) 
1S3V - prepared_ligand_conf_0

>  <ligand_molecule_name>  (1) 
1S3V - prepared_ligand

$$$$
