MOL_0_isomer_0_conf_0
     RDKit          3D

 71 75  0  0  0  0  0  0  0  0999 V2000
    4.2120   -3.5168    0.9823 C   0  0  0  0  0  0  0  0  0  0  0  0
    2.8703   -3.5661    0.9769 C   0  0  0  0  0  0  0  0  0  0  0  0
    2.2492   -4.5769    1.9256 C   0  0  0  0  0  0  0  0  0  0  0  0
    2.8727   -5.1462    2.8156 O   0  0  0  0  0  0  0  0  0  0  0  0
    0.9170   -4.8350    1.7429 N   0  0  0  0  0  0  0  0  0  0  0  0
    0.1672   -4.2585    0.6560 C   0  0  0  0  0  0  0  0  0  0  0  0
    0.6070   -2.8177    0.4253 C   0  0  0  0  0  0  0  0  0  0  0  0
    2.0524   -2.7310    0.1971 N   0  0  0  0  0  0  0  0  0  0  0  0
    2.5357   -2.0389   -0.9133 C   0  0  0  0  0  0  0  0  0  0  0  0
    3.3909   -2.5380   -1.6502 O   0  0  0  0  0  0  0  0  0  0  0  0
    2.1026   -0.7309   -1.0905 N   0  0  0  0  0  0  0  0  0  0  0  0
    2.3980    0.0607   -2.2073 C   0  0  0  0  0  0  0  0  0  0  0  0
    2.6466   -0.5140   -3.5461 C   0  0  0  0  0  0  0  0  0  0  0  0
    3.7730   -0.0348   -4.2279 C   0  0  0  0  0  0  0  0  0  0  0  0
    4.0701   -0.5079   -5.5028 C   0  0  0  0  0  0  0  0  0  0  0  0
    3.2452   -1.4522   -6.1113 C   0  0  0  0  0  0  0  0  0  0  0  0
    3.6516   -1.8336   -7.3613 O   0  0  0  0  0  0  0  0  0  0  0  0
    2.8995   -2.8514   -8.0088 C   0  0  0  0  0  0  0  0  0  0  0  0
    2.1050   -1.9118   -5.4397 C   0  0  0  0  0  0  0  0  0  0  0  0
    1.7829   -1.4414   -4.1561 C   0  0  0  0  0  0  0  0  0  0  0  0
    0.6638   -1.8083   -3.4508 O   0  0  0  0  0  0  0  0  0  0  0  0
   -0.3731   -2.5557   -4.0979 C   0  0  0  0  0  0  0  0  0  0  0  0
   -1.2068   -3.2094   -2.9985 C   0  0  0  0  0  0  0  0  0  0  0  0
   -1.2542   -1.6266   -4.9294 C   0  0  0  0  0  0  0  0  0  0  0  0
    2.4521    1.3489   -2.0039 N   0  0  0  0  0  0  0  0  0  0  0  0
    2.3343    1.4963   -0.5214 C   0  0  1  0  0  0  0  0  0  0  0  0
    1.7172    2.8010   -0.0638 C   0  0  0  0  0  0  0  0  0  0  0  0
    0.9447    3.5930   -0.9275 C   0  0  0  0  0  0  0  0  0  0  0  0
    0.3606    4.7792   -0.4770 C   0  0  0  0  0  0  0  0  0  0  0  0
    0.5481    5.1853    0.8410 C   0  0  0  0  0  0  0  0  0  0  0  0
   -0.1725    6.6450    1.3979 Cl  0  0  0  0  0  0  0  0  0  0  0  0
    1.3179    4.4178    1.7118 C   0  0  0  0  0  0  0  0  0  0  0  0
    1.9008    3.2308    1.2612 C   0  0  0  0  0  0  0  0  0  0  0  0
    1.6557    0.1858   -0.0524 C   0  0  1  0  0  0  0  0  0  0  0  0
    0.1339    0.3007    0.0688 C   0  0  0  0  0  0  0  0  0  0  0  0
   -0.4454    0.4126    1.3469 C   0  0  0  0  0  0  0  0  0  0  0  0
   -1.8283    0.5439    1.4993 C   0  0  0  0  0  0  0  0  0  0  0  0
   -2.6482    0.5759    0.3754 C   0  0  0  0  0  0  0  0  0  0  0  0
   -4.3508    0.7298    0.5609 Cl  0  0  0  0  0  0  0  0  0  0  0  0
   -2.0967    0.4851   -0.8983 C   0  0  0  0  0  0  0  0  0  0  0  0
   -0.7140    0.3544   -1.0507 C   0  0  0  0  0  0  0  0  0  0  0  0
    4.7770   -2.8304    0.3620 H   0  0  0  0  0  0  0  0  0  0  0  0
    4.8002   -4.1799    1.6112 H   0  0  0  0  0  0  0  0  0  0  0  0
    0.5190   -5.5438    2.3470 H   0  0  0  0  0  0  0  0  0  0  0  0
   -0.8957   -4.3079    0.9105 H   0  0  0  0  0  0  0  0  0  0  0  0
    0.3480   -4.8735   -0.2323 H   0  0  0  0  0  0  0  0  0  0  0  0
    0.0618   -2.4087   -0.4279 H   0  0  0  0  0  0  0  0  0  0  0  0
    0.3870   -2.2271    1.3201 H   0  0  0  0  0  0  0  0  0  0  0  0
    4.4234    0.7035   -3.7642 H   0  0  0  0  0  0  0  0  0  0  0  0
    4.9500   -0.1398   -6.0240 H   0  0  0  0  0  0  0  0  0  0  0  0
    3.3831   -3.0667   -8.9666 H   0  0  0  0  0  0  0  0  0  0  0  0
    1.8802   -2.5115   -8.2203 H   0  0  0  0  0  0  0  0  0  0  0  0
    2.8956   -3.7762   -7.4222 H   0  0  0  0  0  0  0  0  0  0  0  0
    1.4684   -2.6336   -5.9307 H   0  0  0  0  0  0  0  0  0  0  0  0
    0.0328   -3.3710   -4.7053 H   0  0  0  0  0  0  0  0  0  0  0  0
   -2.0319   -3.7930   -3.4184 H   0  0  0  0  0  0  0  0  0  0  0  0
   -1.6199   -2.4603   -2.3151 H   0  0  0  0  0  0  0  0  0  0  0  0
   -0.5817   -3.8778   -2.3979 H   0  0  0  0  0  0  0  0  0  0  0  0
   -2.0870   -2.1739   -5.3829 H   0  0  0  0  0  0  0  0  0  0  0  0
   -0.6838   -1.1494   -5.7324 H   0  0  0  0  0  0  0  0  0  0  0  0
   -1.6609   -0.8178   -4.3117 H   0  0  0  0  0  0  0  0  0  0  0  0
    3.3739    1.4990   -0.1576 H   0  0  0  0  0  0  0  0  0  0  0  0
    0.7919    3.2870   -1.9611 H   0  0  0  0  0  0  0  0  0  0  0  0
   -0.2353    5.3777   -1.1602 H   0  0  0  0  0  0  0  0  0  0  0  0
    1.4702    4.7389    2.7385 H   0  0  0  0  0  0  0  0  0  0  0  0
    2.5033    2.6456    1.9526 H   0  0  0  0  0  0  0  0  0  0  0  0
    2.0709   -0.1315    0.9124 H   0  0  0  0  0  0  0  0  0  0  0  0
    0.1784    0.4062    2.2393 H   0  0  0  0  0  0  0  0  0  0  0  0
   -2.2566    0.6308    2.4946 H   0  0  0  0  0  0  0  0  0  0  0  0
   -2.7325    0.5262   -1.7789 H   0  0  0  0  0  0  0  0  0  0  0  0
   -0.3103    0.3111   -2.0598 H   0  0  0  0  0  0  0  0  0  0  0  0
 42  1  1  0
  1 43  1  0
  1  2  2  0
  2  3  1  0
  3  4  2  0
  3  5  1  0
  5 44  1  0
  5  6  1  0
  6 45  1  0
  6 46  1  0
  6  7  1  0
  7 47  1  0
  7 48  1  0
  2  8  1  0
  7  8  1  0
  8  9  1  0
  9 10  2  0
  9 11  1  0
 11 12  1  0
 12 13  1  0
 13 14  2  0
 14 49  1  0
 14 15  1  0
 15 50  1  0
 15 16  2  0
 16 17  1  0
 17 18  1  0
 18 51  1  0
 18 52  1  0
 18 53  1  0
 16 19  1  0
 19 54  1  0
 13 20  1  0
 19 20  2  0
 20 21  1  0
 21 22  1  0
 22 55  1  0
 22 23  1  0
 23 56  1  0
 23 57  1  0
 23 58  1  0
 22 24  1  0
 24 59  1  0
 24 60  1  0
 24 61  1  0
 12 25  2  0
 25 26  1  0
 26 62  1  1
 26 27  1  0
 27 28  2  0
 28 63  1  0
 28 29  1  0
 29 64  1  0
 29 30  2  0
 30 31  1  0
 30 32  1  0
 32 65  1  0
 27 33  1  0
 32 33  2  0
 33 66  1  0
 11 34  1  0
 26 34  1  0
 34 67  1  1
 34 35  1  0
 35 36  2  0
 36 68  1  0
 36 37  1  0
 37 69  1  0
 37 38  2  0
 38 39  1  0
 38 40  1  0
 40 70  1  0
 35 41  1  0
 40 41  2  0
 41 71  1  0
M  END
>  <conformer_energy>  (1) 
113.61

>  <ligand_smiles>  (1) 
C=C1C(=O)NCCN1C(=O)N1C(c2ccc(OC)cc2OC(C)C)=N[C@@H](c2ccc(Cl)cc2)[C@H]1c1ccc(Cl)cc1

>  <ligand_conf_name>  (1) 
MOL_0_isomer_0_conf_0

>  <ligand_molecule_name>  (1) 
MOL_0_isomer_0

$$$$
