1G9V - prepared_ligand2_conf_0
     RDKit          3D

 47 48  0  0  0  0  0  0  0  0999 V2000
    2.6472   -1.5489    2.0237 C   0  0  0  0  0  0  0  0  0  0  0  0
    3.6418   -2.4321    2.4354 C   0  0  0  0  0  0  0  0  0  0  0  0
    4.5164   -2.9936    1.4938 C   0  0  0  0  0  0  0  0  0  0  0  0
    5.4482   -4.1086    1.8983 C   0  0  0  0  0  0  0  0  0  0  0  0
    5.0880   -5.4870    1.3408 C   0  0  0  0  0  0  0  0  0  0  0  0
    5.9865   -6.3099    1.1559 O   0  0  0  0  0  0  0  0  0  0  0  0
    3.7363   -5.7051    1.1433 N   0  0  0  0  0  0  0  0  0  0  0  0
    3.0999   -6.8694    0.6660 C   0  0  0  0  0  0  0  0  0  0  0  0
    3.7621   -8.0581    0.3577 C   0  0  0  0  0  0  0  0  0  0  0  0
    3.0546   -9.1697   -0.1293 C   0  0  0  0  0  0  0  0  0  0  0  0
    3.7781  -10.4458   -0.4435 C   0  0  0  0  0  0  0  0  0  0  0  0
    1.6634   -9.0906   -0.2777 C   0  0  0  0  0  0  0  0  0  0  0  0
    0.9855   -7.9032    0.0145 C   0  0  0  0  0  0  0  0  0  0  0  0
   -0.5033   -7.8031   -0.1350 C   0  0  0  0  0  0  0  0  0  0  0  0
    1.7108   -6.8039    0.4948 C   0  0  0  0  0  0  0  0  0  0  0  0
    4.4354   -2.5911    0.1518 C   0  0  0  0  0  0  0  0  0  0  0  0
    3.4359   -1.7079   -0.2558 C   0  0  0  0  0  0  0  0  0  0  0  0
    2.5076   -1.2471    0.6715 C   0  0  0  0  0  0  0  0  0  0  0  0
    1.4688   -0.4617    0.2591 O   0  0  0  0  0  0  0  0  0  0  0  0
    0.2391   -1.2051   -0.0488 C   0  0  0  0  0  0  0  0  0  0  0  0
   -0.1261   -2.3063    1.0218 C   0  0  0  0  0  0  0  0  0  0  0  0
   -0.6360   -1.8911    2.1080 O   0  0  0  0  0  0  0  0  0  0  0  0
    0.1252   -3.5078    0.6935 O   0  0  0  0  0  0  0  0  0  0  0  0
   -0.8747   -0.1468   -0.0214 C   0  0  0  0  0  0  0  0  0  0  0  0
    0.3207   -1.7873   -1.4657 C   0  0  0  0  0  0  0  0  0  0  0  0
    1.9269   -1.1611    2.7412 H   0  0  0  0  0  0  0  0  0  0  0  0
    3.6806   -2.7214    3.4831 H   0  0  0  0  0  0  0  0  0  0  0  0
    6.4617   -3.8535    1.5632 H   0  0  0  0  0  0  0  0  0  0  0  0
    5.4878   -4.2003    2.9910 H   0  0  0  0  0  0  0  0  0  0  0  0
    3.1032   -4.9238    1.3114 H   0  0  0  0  0  0  0  0  0  0  0  0
    4.8359   -8.1445    0.4869 H   0  0  0  0  0  0  0  0  0  0  0  0
    4.8230  -10.2513   -0.7067 H   0  0  0  0  0  0  0  0  0  0  0  0
    3.3185  -10.9509   -1.3009 H   0  0  0  0  0  0  0  0  0  0  0  0
    3.7519  -11.1159    0.4208 H   0  0  0  0  0  0  0  0  0  0  0  0
    1.1069   -9.9547   -0.6324 H   0  0  0  0  0  0  0  0  0  0  0  0
   -0.8713   -8.5233   -0.8746 H   0  0  0  0  0  0  0  0  0  0  0  0
   -0.7940   -6.8053   -0.4811 H   0  0  0  0  0  0  0  0  0  0  0  0
   -0.9911   -8.0043    0.8231 H   0  0  0  0  0  0  0  0  0  0  0  0
    1.1755   -5.8794    0.7226 H   0  0  0  0  0  0  0  0  0  0  0  0
    5.1062   -3.0130   -0.5934 H   0  0  0  0  0  0  0  0  0  0  0  0
    3.3422   -1.4289   -1.3002 H   0  0  0  0  0  0  0  0  0  0  0  0
   -1.8679   -0.5915   -0.1556 H   0  0  0  0  0  0  0  0  0  0  0  0
   -0.7219    0.5991   -0.8116 H   0  0  0  0  0  0  0  0  0  0  0  0
   -0.8707    0.4138    0.9225 H   0  0  0  0  0  0  0  0  0  0  0  0
   -0.6396   -2.2166   -1.7762 H   0  0  0  0  0  0  0  0  0  0  0  0
    1.0706   -2.5836   -1.5410 H   0  0  0  0  0  0  0  0  0  0  0  0
    0.6121   -1.0182   -2.1901 H   0  0  0  0  0  0  0  0  0  0  0  0
 26  1  1  0
  1  2  2  0
  2 27  1  0
  2  3  1  0
  3  4  1  0
  4 28  1  0
  4 29  1  0
  4  5  1  0
  5  6  2  0
  5  7  1  0
  7 30  1  0
  7  8  1  0
  8  9  2  0
  9 31  1  0
  9 10  1  0
 10 11  1  0
 11 32  1  0
 11 33  1  0
 11 34  1  0
 10 12  2  0
 12 35  1  0
 12 13  1  0
 13 14  1  0
 14 36  1  0
 14 37  1  0
 14 38  1  0
  8 15  1  0
 13 15  2  0
 15 39  1  0
  3 16  2  0
 16 40  1  0
 16 17  1  0
 17 41  1  0
  1 18  1  0
 17 18  2  0
 18 19  1  0
 19 20  1  0
 20 21  1  0
 21 22  2  0
 21 23  1  0
 20 24  1  0
 24 42  1  0
 24 43  1  0
 24 44  1  0
 20 25  1  0
 25 45  1  0
 25 46  1  0
 25 47  1  0
M  CHG  1  23  -1
M  END
>  <conformer_energy>  (1) 
102.18

>  <ligand_smiles>  (1) 
Cc1cc(C)cc(NC(=O)Cc2ccc(OC(C)(C)C(=O)[O-])cc2)c1

>  <ligand_conf_name>  (1) 
1G9V - prepared_ligand2_conf_0

>  <ligand_molecule_name>  (1) 
1G9V - prepared_ligand2

>  <fragInfo>  (1) 
8 9 10 11 12 13 14 15 31 32 33 34 35 36 37 38 39
1 2 3 16 17 18 26 27 40 41
4 28 29
5 6 7 30
19
20 24 25 42 43 44 45 46 47
21 22 23


>  <torsionInfo>  (1) 
7 8 3 0
3 4 1 2
18 19 1 4
4 5 2 3
19 20 4 5
20 21 5 6


>  <atomInfo>  (1) 
1  -0.019624 A 
2  -0.054840 A 
3  -0.038404 A 
4  0.052000  C 
5  0.228294  C 
6  -0.274368 OA
7  -0.325788 N 
8  0.041201  A 
9  -0.035579 A 
10 -0.048805 A 
11 -0.039688 C 
12 -0.056233 A 
13 -0.048805 A 
14 -0.039688 C 
15 -0.035579 A 
16 -0.054840 A 
17 -0.019624 A 
18 0.120227  A 
19 -0.481917 OA
20 0.142520  C 
21 0.084430  C 
22 -0.545817 OA
23 -0.545817 OA
24 -0.019599 C 
25 -0.019599 C 
26 0.066201  H 
27 0.062712  H 
28 0.041708  H 
29 0.041708  H 
30 0.169442  HD
31 0.064753  H 
32 0.027966  H 
33 0.027966  H 
34 0.027966  H 
35 0.062834  H 
36 0.027966  H 
37 0.027966  H 
38 0.027966  H 
39 0.064753  H 
40 0.062712  H 
41 0.066201  H 
42 0.027520  H 
43 0.027520  H 
44 0.027520  H 
45 0.027520  H 
46 0.027520  H 
47 0.027520  H 


$$$$
