MOL_0_isomer_0_conf_0
     RDKit          3D

 19 18  0  0  0  0  0  0  0  0999 V2000
    2.4090   -2.3444   -3.7694 O   0  0  0  0  0  0  0  0  0  0  0  0
    2.5540   -1.5330   -2.6969 C   0  0  0  0  0  0  0  0  0  0  0  0
    3.4502   -1.6819   -1.8822 O   0  0  0  0  0  0  0  0  0  0  0  0
    1.4862   -0.4649   -2.6365 C   0  0  0  0  0  0  0  0  0  0  0  0
    1.6977    0.5184   -1.4795 C   0  0  0  0  0  0  0  0  0  0  0  0
    1.4329   -0.0785   -0.0864 C   0  0  2  0  0  0  0  0  0  0  0  0
   -0.0551   -0.1169    0.3091 C   0  0  0  0  0  0  0  0  0  0  0  0
   -0.4932   -0.0824    1.4512 O   0  0  0  0  0  0  0  0  0  0  0  0
   -0.9103   -0.2730   -0.7192 O   0  0  0  0  0  0  0  0  0  0  0  0
    2.1519    0.7580    0.9023 N   0  0  0  0  0  0  0  0  0  0  0  0
    1.6506   -2.1142   -4.3393 H   0  0  0  0  0  0  0  0  0  0  0  0
    0.5118   -0.9558   -2.5767 H   0  0  0  0  0  0  0  0  0  0  0  0
    1.5344    0.0983   -3.5759 H   0  0  0  0  0  0  0  0  0  0  0  0
    2.7305    0.8886   -1.5390 H   0  0  0  0  0  0  0  0  0  0  0  0
    1.0472    1.3888   -1.6365 H   0  0  0  0  0  0  0  0  0  0  0  0
    1.8044   -1.1050   -0.0077 H   0  0  0  0  0  0  0  0  0  0  0  0
   -1.7856   -0.2793   -0.2753 H   0  0  0  0  0  0  0  0  0  0  0  0
    1.8740    0.4547    1.8394 H   0  0  0  0  0  0  0  0  0  0  0  0
    3.1508    0.5622    0.8276 H   0  0  0  0  0  0  0  0  0  0  0  0
 11  1  1  0
  1  2  1  0
  2  3  2  0
  2  4  1  0
  4 12  1  0
  4 13  1  0
  4  5  1  0
  5 14  1  0
  5 15  1  0
  5  6  1  0
  6 16  1  6
  6  7  1  0
  7  8  2  0
  7  9  1  0
  9 17  1  0
  6 10  1  0
 10 18  1  0
 10 19  1  0
M  END
>  <conformer_energy>  (1) 
-1.92

>  <ligand_smiles>  (1) 
N[C@H](CCC(=O)O)C(=O)O

>  <ligand_conf_name>  (1) 
MOL_0_isomer_0_conf_0

>  <ligand_molecule_name>  (1) 
MOL_0_isomer_0

$$$$
