MOL_0_isomer_0_conf_0
     RDKit          3D

 37 38  0  0  0  0  0  0  0  0999 V2000
    1.2606   -0.5115   -2.9418 O   0  0  0  0  0  0  0  0  0  0  0  0
    1.2249    0.1928   -1.6815 C   0  0  1  0  0  0  0  0  0  0  0  0
    2.5601    0.8709   -1.4709 C   0  0  1  0  0  0  0  0  0  0  0  0
    3.6356    0.0999   -2.0214 O   0  0  0  0  0  0  0  0  0  0  0  0
    2.3517    2.2170   -2.1697 C   0  0  2  0  0  0  0  0  0  0  0  0
    3.1874    3.2832   -1.5955 N   0  0  0  0  0  0  0  0  0  0  0  0
    2.8196    3.8619   -0.3993 C   0  0  0  0  0  0  0  0  0  0  0  0
    3.5667    4.7987    0.1764 C   0  0  0  0  0  0  0  0  0  0  0  0
    4.7979    5.1582   -0.5450 C   0  0  0  0  0  0  0  0  0  0  0  0
    5.6253    6.1078   -0.0249 N   0  0  0  0  0  0  0  0  0  0  0  0
    5.1579    4.6199   -1.6671 N   0  0  0  0  0  0  0  0  0  0  0  0
    4.3637    3.6476   -2.2491 C   0  0  0  0  0  0  0  0  0  0  0  0
    4.7097    3.1536   -3.3198 O   0  0  0  0  0  0  0  0  0  0  0  0
    0.9724    2.5723   -1.9972 O   0  0  0  0  0  0  0  0  0  0  0  0
    0.2164    1.3417   -1.7481 C   0  0  2  0  0  0  0  0  0  0  0  0
   -0.5868    1.4989   -0.4588 C   0  0  0  0  0  0  0  0  0  0  0  0
   -1.9226    1.8395   -0.7963 O   0  0  0  0  0  0  0  0  0  0  0  0
   -3.1007    0.9502   -0.1040 P   0  0  1  0  0  5  0  0  0  0  0  0
   -2.8321    0.9389    1.3931 O   0  0  0  0  0  0  0  0  0  0  0  0
   -4.4067    1.6126   -0.5375 O   0  0  0  0  0  1  0  0  0  0  0  0
   -2.9796   -0.4801   -0.8075 O   0  0  0  0  0  0  0  0  0  0  0  0
   -1.8924   -1.6010   -1.2001 P   0  0  0  0  0  5  0  0  0  0  0  0
   -1.1664   -1.0997   -2.4525 O   0  0  0  0  0  0  0  0  0  0  0  0
   -2.7055   -2.8613   -1.4857 O   0  0  0  0  0  1  0  0  0  0  0  0
   -0.9362   -1.7589   -0.0269 O   0  0  0  0  0  1  0  0  0  0  0  0
    0.3201   -0.9027   -2.9352 H   0  0  0  0  0  0  0  0  0  0  0  0
    1.0422   -0.5545   -0.9080 H   0  0  0  0  0  0  0  0  0  0  0  0
    2.7445    1.0074   -0.3993 H   0  0  0  0  0  0  0  0  0  0  0  0
    3.1629   -0.4911   -2.6543 H   0  0  0  0  0  0  0  0  0  0  0  0
    2.5479    2.1307   -3.2449 H   0  0  0  0  0  0  0  0  0  0  0  0
    1.8908    3.5262    0.0542 H   0  0  0  0  0  0  0  0  0  0  0  0
    3.3020    5.2712    1.1089 H   0  0  0  0  0  0  0  0  0  0  0  0
    5.4366    6.5799    0.8447 H   0  0  0  0  0  0  0  0  0  0  0  0
    6.4632    6.3206   -0.5479 H   0  0  0  0  0  0  0  0  0  0  0  0
   -0.4526    1.2450   -2.6096 H   0  0  0  0  0  0  0  0  0  0  0  0
   -0.1937    2.3175    0.1519 H   0  0  0  0  0  0  0  0  0  0  0  0
   -0.5630    0.6016    0.1578 H   0  0  0  0  0  0  0  0  0  0  0  0
 26  1  1  0
  1  2  1  0
  2 27  1  1
  2  3  1  0
  3 28  1  1
  3  4  1  0
  4 29  1  0
  3  5  1  0
  5 30  1  6
  5  6  1  0
  6  7  1  0
  7 31  1  0
  7  8  2  0
  8 32  1  0
  8  9  1  0
  9 10  1  0
 10 33  1  0
 10 34  1  0
  9 11  2  0
  6 12  1  0
 11 12  1  0
 12 13  2  0
  5 14  1  0
  2 15  1  0
 14 15  1  0
 15 35  1  6
 15 16  1  0
 16 36  1  0
 16 37  1  0
 16 17  1  0
 17 18  1  0
 18 19  2  0
 18 20  1  1
 18 21  1  0
 21 22  1  0
 22 23  2  0
 22 24  1  0
 22 25  1  0
M  CHG  3  20  -1  24  -1  25  -1
M  END
>  <conformer_energy>  (1) 
-75.36

>  <ligand_smiles>  (1) 
Nc1ccn([C@@H]2O[C@H](CO[P@@](=O)([O-])OP(=O)([O-])[O-])[C@@H](O)[C@H]2O)c(=O)n1

>  <ligand_conf_name>  (1) 
MOL_0_isomer_0_conf_0

>  <ligand_molecule_name>  (1) 
MOL_0_isomer_0

$$$$
