MOL_0_isomer_0_chiral_N_isomer_0_conf_0
     RDKit          3D

 22 22  0  0  0  0  0  0  0  0999 V2000
    3.7800   -0.4953    0.6869 C   0  0  0  0  0  0  0  0  0  0  0  0
    2.7097    0.3172    1.0576 C   0  0  0  0  0  0  0  0  0  0  0  0
    1.5865    0.4313    0.2280 C   0  0  0  0  0  0  0  0  0  0  0  0
    0.4973    1.2725    0.6502 N   0  0  0  0  0  0  0  0  0  0  0  0
   -0.4567    0.7319    1.9370 S   0  0  0  0  0  6  0  0  0  0  0  0
   -1.3911    1.7933    2.2604 O   0  0  0  0  0  0  0  0  0  0  0  0
    0.3845    0.1772    2.9810 O   0  0  0  0  0  0  0  0  0  0  0  0
   -1.3924   -0.6012    1.2126 C   0  0  0  0  0  0  0  0  0  0  0  0
    1.5300   -0.2630   -0.9975 C   0  0  0  0  0  0  0  0  0  0  0  0
    0.3455   -0.1565   -1.9267 C   0  0  0  0  0  0  0  0  0  0  0  0
   -0.5753    0.6532   -1.5768 O   0  0  0  0  0  0  0  0  0  0  0  0
    0.3407   -0.8874   -2.9620 O   0  0  0  0  0  1  0  0  0  0  0  0
    2.6216   -1.0788   -1.3526 C   0  0  0  0  0  0  0  0  0  0  0  0
    3.7255   -1.1874   -0.5151 C   0  0  0  0  0  0  0  0  0  0  0  0
    4.7550   -1.9685   -0.8703 F   0  0  0  0  0  0  0  0  0  0  0  0
    4.6494   -0.5904    1.3272 H   0  0  0  0  0  0  0  0  0  0  0  0
    2.7489    0.8645    1.9958 H   0  0  0  0  0  0  0  0  0  0  0  0
   -0.1315    1.4456   -0.1689 H   0  0  0  0  0  0  0  0  0  0  0  0
   -2.0267   -1.0212    1.9973 H   0  0  0  0  0  0  0  0  0  0  0  0
   -0.7109   -1.3713    0.8496 H   0  0  0  0  0  0  0  0  0  0  0  0
   -2.0223   -0.2086    0.4140 H   0  0  0  0  0  0  0  0  0  0  0  0
    2.6052   -1.6286   -2.2912 H   0  0  0  0  0  0  0  0  0  0  0  0
 16  1  1  0
  1  2  2  0
  2 17  1  0
  2  3  1  0
  3  4  1  0
  4 18  1  0
  4  5  1  0
  5  6  2  0
  5  7  2  0
  5  8  1  0
  8 19  1  0
  8 20  1  0
  8 21  1  0
  3  9  2  0
  9 10  1  0
 10 11  2  0
 10 12  1  0
  9 13  1  0
 13 22  1  0
  1 14  1  0
 13 14  2  0
 14 15  1  0
M  CHG  1  12  -1
M  END
>  <conformer_energy>  (1) 
-49.26

>  <ligand_smiles>  (1) 
CS(=O)(=O)Nc1ccc(F)cc1C(=O)[O-]

>  <ligand_conf_name>  (1) 
MOL_0_isomer_0_chiral_N_isomer_0_conf_0

>  <ligand_molecule_name>  (1) 
MOL_0_isomer_0_chiral_N_isomer_0

$$$$
MOL_0_isomer_0_chiral_N_isomer_1_conf_0
     RDKit          3D

 22 22  0  0  0  0  0  0  0  0999 V2000
    3.7816    0.0231    0.8863 C   0  0  0  0  0  0  0  0  0  0  0  0
    2.5500    0.6646    1.0071 C   0  0  0  0  0  0  0  0  0  0  0  0
    1.4780    0.3011    0.1816 C   0  0  0  0  0  0  0  0  0  0  0  0
    0.2190    0.9802    0.3434 N   0  0  0  0  0  0  0  0  0  0  0  0
   -0.6817    0.6395    1.7329 S   0  0  0  0  0  6  0  0  0  0  0  0
   -1.8276    1.5291    1.7362 O   0  0  0  0  0  0  0  0  0  0  0  0
    0.1901    0.5925    2.8917 O   0  0  0  0  0  0  0  0  0  0  0  0
   -1.2863   -1.0093    1.4271 C   0  0  0  0  0  0  0  0  0  0  0  0
    1.6348   -0.7080   -0.7902 C   0  0  0  0  0  0  0  0  0  0  0  0
    0.5104   -1.1197   -1.7087 C   0  0  0  0  0  0  0  0  0  0  0  0
   -0.5733   -0.4554   -1.6073 O   0  0  0  0  0  0  0  0  0  0  0  0
    0.7137   -2.0983   -2.4878 O   0  0  0  0  0  1  0  0  0  0  0  0
    2.8870   -1.3438   -0.8951 C   0  0  0  0  0  0  0  0  0  0  0  0
    3.9385   -0.9769   -0.0635 C   0  0  0  0  0  0  0  0  0  0  0  0
    5.1231   -1.5932   -0.1786 F   0  0  0  0  0  0  0  0  0  0  0  0
    4.6128    0.2976    1.5255 H   0  0  0  0  0  0  0  0  0  0  0  0
    2.4228    1.4511    1.7464 H   0  0  0  0  0  0  0  0  0  0  0  0
   -0.3820    0.7783   -0.4899 H   0  0  0  0  0  0  0  0  0  0  0  0
   -1.8689   -1.3125    2.3006 H   0  0  0  0  0  0  0  0  0  0  0  0
   -0.4438   -1.6903    1.3018 H   0  0  0  0  0  0  0  0  0  0  0  0
   -1.9336   -1.0001    0.5499 H   0  0  0  0  0  0  0  0  0  0  0  0
    3.0370   -2.1279   -1.6341 H   0  0  0  0  0  0  0  0  0  0  0  0
 16  1  1  0
  1  2  2  0
  2 17  1  0
  2  3  1  0
  3  4  1  0
  4 18  1  0
  4  5  1  0
  5  6  2  0
  5  7  2  0
  5  8  1  0
  8 19  1  0
  8 20  1  0
  8 21  1  0
  3  9  2  0
  9 10  1  0
 10 11  2  0
 10 12  1  0
  9 13  1  0
 13 22  1  0
  1 14  1  0
 13 14  2  0
 14 15  1  0
M  CHG  1  12  -1
M  END
>  <conformer_energy>  (2) 
-49.26

>  <ligand_smiles>  (2) 
CS(=O)(=O)Nc1ccc(F)cc1C(=O)[O-]

>  <ligand_conf_name>  (2) 
MOL_0_isomer_0_chiral_N_isomer_1_conf_0

>  <ligand_molecule_name>  (2) 
MOL_0_isomer_0_chiral_N_isomer_1

$$$$
