MOL_0_isomer_0_conf_0
     RDKit          3D

 18 18  0  0  0  0  0  0  0  0999 V2000
    1.5133    0.9011    2.4093 O   0  0  0  0  0  0  0  0  0  0  0  0
    2.1624    0.8436    1.1543 C   0  0  2  0  0  0  0  0  0  0  0  0
    2.2751    2.2206    0.5202 C   0  0  0  0  0  0  0  0  0  0  0  0
    2.7413    1.9142   -0.8908 C   0  0  0  0  0  0  0  0  0  0  0  0
    2.1029    0.6207   -1.2414 N   0  0  0  0  0  4  0  0  0  0  0  0
    1.4997    0.0194    0.0530 C   0  0  2  0  0  0  0  0  0  0  0  0
   -0.0441    0.1853    0.0010 C   0  0  0  0  0  0  0  0  0  0  0  0
   -0.6548    0.1250    1.0925 O   0  0  0  0  0  0  0  0  0  0  0  0
   -0.4123    0.4573   -1.1869 O   0  0  0  0  0  1  0  0  0  0  0  0
    0.5499    0.7029    2.2757 H   0  0  0  0  0  0  0  0  0  0  0  0
    3.1712    0.4516    1.3356 H   0  0  0  0  0  0  0  0  0  0  0  0
    1.3047    2.7320    0.5170 H   0  0  0  0  0  0  0  0  0  0  0  0
    2.9743    2.8688    1.0577 H   0  0  0  0  0  0  0  0  0  0  0  0
    2.4418    2.6659   -1.6253 H   0  0  0  0  0  0  0  0  0  0  0  0
    3.8228    1.7527   -0.9330 H   0  0  0  0  0  0  0  0  0  0  0  0
    1.2135    0.7784   -1.7856 H   0  0  0  0  0  0  0  0  0  0  0  0
    2.6600   -0.0495   -1.7746 H   0  0  0  0  0  0  0  0  0  0  0  0
    1.7702   -1.0402    0.0818 H   0  0  0  0  0  0  0  0  0  0  0  0
 10  1  1  0
  1  2  1  0
  2 11  1  1
  2  3  1  0
  3 12  1  0
  3 13  1  0
  3  4  1  0
  4 14  1  0
  4 15  1  0
  4  5  1  0
  5 16  1  0
  5 17  1  0
  2  6  1  0
  5  6  1  0
  6 18  1  1
  6  7  1  0
  7  8  2  0
  7  9  1  0
M  CHG  2   5   1   9  -1
M  END
>  <conformer_energy>  (1) 
15.49

>  <ligand_smiles>  (1) 
O=C([O-])[C@H]1[NH2+]CC[C@H]1O

>  <ligand_conf_name>  (1) 
MOL_0_isomer_0_conf_0

>  <ligand_molecule_name>  (1) 
MOL_0_isomer_0

$$$$
