MOL_0_isomer_0_conf_0
     RDKit          3D

 40 42  0  0  0  0  0  0  0  0999 V2000
    2.4555   -7.5682    1.5651 C   0  0  0  0  0  0  0  0  0  0  0  0
    3.4669   -8.4136    1.7922 N   0  0  0  0  0  0  0  0  0  0  0  0
    4.6287   -7.8641    2.2006 C   0  0  0  0  0  0  0  0  0  0  0  0
    5.7361   -8.8166    2.4430 C   0  0  0  0  0  0  0  0  0  0  0  0
    6.7472   -8.5651    3.3893 C   0  0  0  0  0  0  0  0  0  0  0  0
    7.7826   -9.4779    3.6087 C   0  0  0  0  0  0  0  0  0  0  0  0
    7.8301  -10.6654    2.8832 C   0  0  0  0  0  0  0  0  0  0  0  0
    6.8437  -10.9498    1.9338 C   0  0  0  0  0  0  0  0  0  0  0  0
    6.9406  -12.2377    1.1921 C   0  0  0  0  0  0  0  0  0  0  0  0
    7.6644  -13.1467    1.5813 O   0  0  0  0  0  0  0  0  0  0  0  0
    6.2193  -12.3766    0.0400 N   0  0  0  0  0  0  0  0  0  0  0  0
    5.8021  -10.0328    1.7299 C   0  0  0  0  0  0  0  0  0  0  0  0
    4.7597   -6.4942    2.3596 C   0  0  0  0  0  0  0  0  0  0  0  0
    3.6535   -5.6996    2.1024 C   0  0  0  0  0  0  0  0  0  0  0  0
    3.7950   -4.3043    2.2459 N   0  0  0  0  0  0  0  0  0  0  0  0
    3.0272   -3.2403    1.7421 C   0  0  0  0  0  0  0  0  0  0  0  0
    2.0943   -3.3824    0.7110 C   0  0  0  0  0  0  0  0  0  0  0  0
    1.3633   -2.2874    0.2257 C   0  0  0  0  0  0  0  0  0  0  0  0
    1.5600   -1.0179    0.7621 C   0  0  0  0  0  0  0  0  0  0  0  0
    0.9249    0.1314    0.3918 O   0  0  0  0  0  0  0  0  0  0  0  0
   -0.0436    0.0471   -0.6391 C   0  0  0  0  0  0  0  0  0  0  0  0
   -1.0599   -0.7705   -0.2908 F   0  0  0  0  0  0  0  0  0  0  0  0
    0.5081   -0.3833   -1.7940 F   0  0  0  0  0  0  0  0  0  0  0  0
   -0.5538    1.2805   -0.8540 F   0  0  0  0  0  0  0  0  0  0  0  0
    2.4977   -0.8595    1.7832 C   0  0  0  0  0  0  0  0  0  0  0  0
    3.2243   -1.9547    2.2637 C   0  0  0  0  0  0  0  0  0  0  0  0
    2.4952   -6.2381    1.6942 N   0  0  0  0  0  0  0  0  0  0  0  0
    1.5146   -8.0013    1.2436 H   0  0  0  0  0  0  0  0  0  0  0  0
    6.7322   -7.6611    3.9942 H   0  0  0  0  0  0  0  0  0  0  0  0
    8.5480   -9.2674    4.3520 H   0  0  0  0  0  0  0  0  0  0  0  0
    8.6373  -11.3737    3.0626 H   0  0  0  0  0  0  0  0  0  0  0  0
    5.6560  -11.6532   -0.3791 H   0  0  0  0  0  0  0  0  0  0  0  0
    6.3034  -13.2584   -0.4488 H   0  0  0  0  0  0  0  0  0  0  0  0
    5.0076  -10.2582    1.0235 H   0  0  0  0  0  0  0  0  0  0  0  0
    5.7013   -6.0462    2.6478 H   0  0  0  0  0  0  0  0  0  0  0  0
    4.4220   -4.0439    2.9951 H   0  0  0  0  0  0  0  0  0  0  0  0
    1.9210   -4.3531    0.2542 H   0  0  0  0  0  0  0  0  0  0  0  0
    0.6540   -2.4789   -0.5742 H   0  0  0  0  0  0  0  0  0  0  0  0
    2.6696    0.1245    2.2136 H   0  0  0  0  0  0  0  0  0  0  0  0
    3.9459   -1.7865    3.0590 H   0  0  0  0  0  0  0  0  0  0  0  0
 28  1  1  0
  1  2  2  0
  2  3  1  0
  3  4  1  0
  4  5  2  0
  5 29  1  0
  5  6  1  0
  6 30  1  0
  6  7  2  0
  7 31  1  0
  7  8  1  0
  8  9  1  0
  9 10  2  0
  9 11  1  0
 11 32  1  0
 11 33  1  0
  4 12  1  0
  8 12  2  0
 12 34  1  0
  3 13  2  0
 13 35  1  0
 13 14  1  0
 14 15  1  0
 15 36  1  0
 15 16  1  0
 16 17  2  0
 17 37  1  0
 17 18  1  0
 18 38  1  0
 18 19  2  0
 19 20  1  0
 20 21  1  0
 21 22  1  0
 21 23  1  0
 21 24  1  0
 19 25  1  0
 25 39  1  0
 16 26  1  0
 25 26  2  0
 26 40  1  0
  1 27  1  0
 14 27  2  0
M  END
>  <conformer_energy>  (1) 
-19.47

>  <ligand_smiles>  (1) 
NC(=O)c1cccc(-c2cc(Nc3ccc(OC(F)(F)F)cc3)ncn2)c1

>  <ligand_conf_name>  (1) 
MOL_0_isomer_0_conf_0

>  <ligand_molecule_name>  (1) 
MOL_0_isomer_0

$$$$
