MOL_0_isomer_0_conf_0
     RDKit          3D

 17 17  0  0  0  0  0  0  0  0999 V2000
    5.6585    0.1406   -0.0219 O   0  0  0  0  0  0  0  0  0  0  0  0
    4.2939    0.0771   -0.0175 C   0  0  0  0  0  0  0  0  0  0  0  0
    3.5952    0.9816   -0.8064 C   0  0  0  0  0  0  0  0  0  0  0  0
    2.1985    0.9478   -0.8237 C   0  0  0  0  0  0  0  0  0  0  0  0
    1.4881    0.0025   -0.0604 C   0  0  0  0  0  0  0  0  0  0  0  0
   -0.0489   -0.0208   -0.1109 C   0  0  2  0  0  0  0  0  0  0  0  0
   -0.5055    0.4444    1.0444 O   0  0  0  0  0  1  0  0  0  0  0  0
   -0.5610   -1.4116   -0.3441 C   0  0  0  0  0  0  0  0  0  0  0  0
   -0.9363   -2.4902   -0.5807 N   0  0  0  0  0  0  0  0  0  0  0  0
    2.2243   -0.8932    0.7390 C   0  0  0  0  0  0  0  0  0  0  0  0
    3.6207   -0.8602    0.7597 C   0  0  0  0  0  0  0  0  0  0  0  0
    5.9776   -0.5240    0.6090 H   0  0  0  0  0  0  0  0  0  0  0  0
    4.1281    1.7168   -1.3993 H   0  0  0  0  0  0  0  0  0  0  0  0
    1.6515    1.6677   -1.4266 H   0  0  0  0  0  0  0  0  0  0  0  0
   -0.3180    0.5046   -1.0410 H   0  0  0  0  0  0  0  0  0  0  0  0
    1.6911   -1.6092    1.3614 H   0  0  0  0  0  0  0  0  0  0  0  0
    4.1500   -1.5649    1.3901 H   0  0  0  0  0  0  0  0  0  0  0  0
 12  1  1  0
  1  2  1  0
  2  3  2  0
  3 13  1  0
  3  4  1  0
  4 14  1  0
  4  5  2  0
  5  6  1  0
  6 15  1  6
  6  7  1  0
  6  8  1  0
  8  9  3  0
  5 10  1  0
 10 16  1  0
  2 11  1  0
 10 11  2  0
 11 17  1  0
M  CHG  1   7  -1
M  END
>  <conformer_energy>  (1) 
61.13

>  <ligand_smiles>  (1) 
N#C[C@@H]([O-])c1ccc(O)cc1

>  <ligand_conf_name>  (1) 
MOL_0_isomer_0_conf_0

>  <ligand_molecule_name>  (1) 
MOL_0_isomer_0

$$$$
