MOL_0_isomer_0_conf_0
     RDKit          3D

 31 33  0  0  0  0  0  0  0  0999 V2000
    4.2438    0.0098   -0.5540 O   0  0  0  0  0  0  0  0  0  0  0  0
    3.4734    1.1144   -0.0481 C   0  0  1  0  0  0  0  0  0  0  0  0
    2.2075    1.2132   -0.8823 C   0  0  1  0  0  0  0  0  0  0  0  0
    2.4917    1.0268   -2.2646 O   0  0  0  0  0  0  0  0  0  0  0  0
    1.3553    0.1078   -0.2524 C   0  0  2  0  0  0  0  0  0  0  0  0
   -0.0685    0.3336   -0.3912 N   0  0  0  0  0  0  0  0  0  0  0  0
   -0.8735    1.0687    0.4387 C   0  0  0  0  0  0  0  0  0  0  0  0
   -2.1173    1.1157    0.0081 N   0  0  0  0  0  0  0  0  0  0  0  0
   -2.1172    0.3543   -1.1448 C   0  0  0  0  0  0  0  0  0  0  0  0
   -3.1298    0.0131   -2.0576 C   0  0  0  0  0  0  0  0  0  0  0  0
   -4.4330    0.4355   -1.9267 N   0  0  0  0  0  0  0  0  0  0  0  0
   -2.8102   -0.7672   -3.1154 N   0  0  0  0  0  0  0  0  0  0  0  0
   -1.5303   -1.1819   -3.2414 C   0  0  0  0  0  0  0  0  0  0  0  0
   -0.4817   -0.9259   -2.4337 N   0  0  0  0  0  0  0  0  0  0  0  0
   -0.8512   -0.1455   -1.4054 C   0  0  0  0  0  0  0  0  0  0  0  0
    1.6935    0.0778    1.1566 O   0  0  0  0  0  0  0  0  0  0  0  0
    2.9287    0.8002    1.3436 C   0  0  2  0  0  0  0  0  0  0  0  0
    2.6261    2.0511    2.1566 C   0  0  0  0  0  0  0  0  0  0  0  0
    5.0420   -0.0706   -0.0000 H   0  0  0  0  0  0  0  0  0  0  0  0
    4.1017    2.0080   -0.1033 H   0  0  0  0  0  0  0  0  0  0  0  0
    1.7400    2.1963   -0.7545 H   0  0  0  0  0  0  0  0  0  0  0  0
    3.1695    0.3201   -2.3038 H   0  0  0  0  0  0  0  0  0  0  0  0
    1.5819   -0.8795   -0.6721 H   0  0  0  0  0  0  0  0  0  0  0  0
   -0.5045    1.5443    1.3384 H   0  0  0  0  0  0  0  0  0  0  0  0
   -5.1000    0.1477   -2.6236 H   0  0  0  0  0  0  0  0  0  0  0  0
   -4.6830    1.0167   -1.1400 H   0  0  0  0  0  0  0  0  0  0  0  0
   -1.3206   -1.8037   -4.1072 H   0  0  0  0  0  0  0  0  0  0  0  0
    3.6090    0.1512    1.9054 H   0  0  0  0  0  0  0  0  0  0  0  0
    2.1890    1.7777    3.1231 H   0  0  0  0  0  0  0  0  0  0  0  0
    3.5349    2.6330    2.3369 H   0  0  0  0  0  0  0  0  0  0  0  0
    1.8939    2.6919    1.6544 H   0  0  0  0  0  0  0  0  0  0  0  0
 19  1  1  0
  1  2  1  0
  2 20  1  1
  2  3  1  0
  3 21  1  6
  3  4  1  0
  4 22  1  0
  3  5  1  0
  5 23  1  6
  5  6  1  0
  6  7  1  0
  7 24  1  0
  7  8  2  0
  8  9  1  0
  9 10  1  0
 10 11  1  0
 11 25  1  0
 11 26  1  0
 10 12  2  0
 12 13  1  0
 13 27  1  0
 13 14  2  0
  9 15  2  0
  6 15  1  0
 14 15  1  0
  5 16  1  0
  2 17  1  0
 16 17  1  0
 17 28  1  1
 17 18  1  0
 18 29  1  0
 18 30  1  0
 18 31  1  0
M  END
>  <conformer_energy>  (1) 
66.95

>  <ligand_smiles>  (1) 
C[C@H]1O[C@@H](n2cnc3c(N)ncnc32)[C@H](O)[C@@H]1O

>  <ligand_conf_name>  (1) 
MOL_0_isomer_0_conf_0

>  <ligand_molecule_name>  (1) 
MOL_0_isomer_0

$$$$
