1N1M - prepared_ligand8_conf_0
     RDKit          3D

 31 31  0  0  0  0  0  0  0  0999 V2000
    2.9498    2.0345   -0.9602 C   0  0  0  0  0  0  0  0  0  0  0  0
    2.5055    0.9172   -1.9121 C   0  0  0  0  0  0  0  0  0  0  0  0
    3.5667    0.7662   -3.0132 C   0  0  0  0  0  0  0  0  0  0  0  0
    2.2828   -0.3963   -1.1447 C   0  0  1  0  0  0  0  0  0  0  0  0
    1.3761   -0.4052    0.1114 C   0  0  0  0  0  0  0  0  0  0  0  0
    1.7689   -1.0677    1.0775 O   0  0  0  0  0  0  0  0  0  0  0  0
    0.1119    0.1318    0.0933 N   0  0  0  0  0  0  0  0  0  0  0  0
   -0.7635   -0.0577    1.2490 C   0  0  0  0  0  0  0  0  0  0  0  0
   -2.1558    0.2427    0.7217 C   0  0  0  0  0  0  0  0  0  0  0  0
   -1.8936    1.3447   -0.2907 C   0  0  0  0  0  0  0  0  0  0  0  0
   -0.5613    0.9450   -0.9145 C   0  0  0  0  0  0  0  0  0  0  0  0
    1.8143   -1.4880   -2.0715 N   0  0  0  0  0  0  0  0  0  0  0  0
    3.8909    1.7774   -0.4616 H   0  0  0  0  0  0  0  0  0  0  0  0
    2.2019    2.2296   -0.1862 H   0  0  0  0  0  0  0  0  0  0  0  0
    3.1041    2.9710   -1.5072 H   0  0  0  0  0  0  0  0  0  0  0  0
    1.5856    1.2271   -2.4149 H   0  0  0  0  0  0  0  0  0  0  0  0
    3.2369    0.0763   -3.7958 H   0  0  0  0  0  0  0  0  0  0  0  0
    4.5136    0.3960   -2.6058 H   0  0  0  0  0  0  0  0  0  0  0  0
    3.7623    1.7294   -3.4975 H   0  0  0  0  0  0  0  0  0  0  0  0
    3.2645   -0.7475   -0.7977 H   0  0  0  0  0  0  0  0  0  0  0  0
   -0.6780   -1.0695    1.6566 H   0  0  0  0  0  0  0  0  0  0  0  0
   -0.4607    0.6626    2.0174 H   0  0  0  0  0  0  0  0  0  0  0  0
   -2.5657   -0.6384    0.2136 H   0  0  0  0  0  0  0  0  0  0  0  0
   -2.8512    0.5416    1.5105 H   0  0  0  0  0  0  0  0  0  0  0  0
   -2.6909    1.4461   -1.0321 H   0  0  0  0  0  0  0  0  0  0  0  0
   -1.7886    2.3053    0.2283 H   0  0  0  0  0  0  0  0  0  0  0  0
    0.0262    1.8319   -1.1539 H   0  0  0  0  0  0  0  0  0  0  0  0
   -0.6968    0.3362   -1.8133 H   0  0  0  0  0  0  0  0  0  0  0  0
    2.4969   -1.7025   -2.8070 H   0  0  0  0  0  0  0  0  0  0  0  0
    1.6857   -2.3504   -1.5196 H   0  0  0  0  0  0  0  0  0  0  0  0
    0.9092   -1.2673   -2.5012 H   0  0  0  0  0  0  0  0  0  0  0  0
 13  1  1  0
  1 14  1  0
  1 15  1  0
  1  2  1  0
  2 16  1  0
  2  3  1  0
  3 17  1  0
  3 18  1  0
  3 19  1  0
  2  4  1  0
  4 20  1  1
  4  5  1  0
  5  6  2  0
  5  7  1  0
  7  8  1  0
  8 21  1  0
  8 22  1  0
  8  9  1  0
  9 23  1  0
  9 24  1  0
  9 10  1  0
 10 25  1  0
 10 26  1  0
  7 11  1  0
 10 11  1  0
 11 27  1  0
 11 28  1  0
  4 12  1  0
 12 29  1  0
 12 30  1  0
 12 31  1  0
M  CHG  1  12   1
M  END
>  <conformer_energy>  (1) 
37.04

>  <ligand_smiles>  (1) 
CC(C)[C@H]([NH3+])C(=O)N1CCCC1

>  <ligand_conf_name>  (1) 
1N1M - prepared_ligand8_conf_0

>  <ligand_molecule_name>  (1) 
1N1M - prepared_ligand8

>  <fragInfo>  (1) 
7 8 9 10 11 21 22 23 24 25 26 27 28
1 2 3 13 14 15 16 17 18 19
4 12 20 29 30 31
5 6


>  <torsionInfo>  (1) 
5 7 3 0
2 4 1 2
4 5 2 3


>  <atomInfo>  (1) 
1  -0.056549 C 
2  0.014567  C 
3  -0.056549 C 
4  0.166108  C 
5  0.280492  C 
6  -0.267910 OA
7  -0.337546 N 
8  0.020743  C 
9  -0.033756 C 
10 -0.033756 C 
11 0.020743  C 
12 -0.347111 N 
13 0.023555  H 
14 0.023555  H 
15 0.023555  H 
16 0.036402  H 
17 0.023555  H 
18 0.023555  H 
19 0.023555  H 
20 0.107109  H 
21 0.049382  H 
22 0.049382  H 
23 0.028532  H 
24 0.028532  H 
25 0.028532  H 
26 0.028532  H 
27 0.049382  H 
28 0.049382  H 
29 0.344677  HD
30 0.344677  HD
31 0.344677  HD


$$$$
