MOL_0_isomer_0_chiral_N_isomer_0_conf_0
     RDKit          3D

 22 22  0  0  0  0  0  0  0  0999 V2000
    3.7845    0.7939   -0.1494 C   0  0  0  0  0  0  0  0  0  0  0  0
    2.4041    0.9844   -0.0683 C   0  0  0  0  0  0  0  0  0  0  0  0
    1.5648   -0.1089    0.1367 C   0  0  0  0  0  0  0  0  0  0  0  0
    0.1573    0.1262    0.2233 N   0  0  0  0  0  0  0  0  0  0  0  0
   -0.5403    0.0787    1.7615 S   0  0  0  0  0  6  0  0  0  0  0  0
   -0.1336   -1.1302    2.4427 O   0  0  0  0  0  0  0  0  0  0  0  0
   -1.9487    0.3587    1.5614 O   0  0  0  0  0  0  0  0  0  0  0  0
    0.1862    1.4912    2.5699 C   0  0  0  0  0  0  0  0  0  0  0  0
    2.0944   -1.3905    0.2618 C   0  0  0  0  0  0  0  0  0  0  0  0
    3.4772   -1.5764    0.1807 C   0  0  0  0  0  0  0  0  0  0  0  0
    4.3434   -0.4889   -0.0265 C   0  0  0  0  0  0  0  0  0  0  0  0
    5.8446   -0.6925   -0.1162 C   0  0  0  0  0  0  0  0  0  0  0  0
    6.2727   -1.8855   -0.0254 O   0  0  0  0  0  0  0  0  0  0  0  0
    6.5580    0.3474   -0.2761 O   0  0  0  0  0  1  0  0  0  0  0  0
    4.4448    1.6445   -0.3136 H   0  0  0  0  0  0  0  0  0  0  0  0
    1.9983    1.9847   -0.1777 H   0  0  0  0  0  0  0  0  0  0  0  0
   -0.3792   -0.4816   -0.3971 H   0  0  0  0  0  0  0  0  0  0  0  0
   -0.3029    1.6064    3.5399 H   0  0  0  0  0  0  0  0  0  0  0  0
    0.0084    2.3793    1.9608 H   0  0  0  0  0  0  0  0  0  0  0  0
    1.2526    1.3163    2.7184 H   0  0  0  0  0  0  0  0  0  0  0  0
    1.4546   -2.2499    0.4356 H   0  0  0  0  0  0  0  0  0  0  0  0
    3.8990   -2.5757    0.2828 H   0  0  0  0  0  0  0  0  0  0  0  0
 15  1  1  0
  1  2  2  0
  2 16  1  0
  2  3  1  0
  3  4  1  0
  4 17  1  0
  4  5  1  0
  5  6  2  0
  5  7  2  0
  5  8  1  0
  8 18  1  0
  8 19  1  0
  8 20  1  0
  3  9  2  0
  9 21  1  0
  9 10  1  0
 10 22  1  0
  1 11  1  0
 10 11  2  0
 11 12  1  0
 12 13  2  0
 12 14  1  0
M  CHG  1  14  -1
M  END
>  <conformer_energy>  (1) 
-19.74

>  <ligand_smiles>  (1) 
CS(=O)(=O)Nc1ccc(C(=O)[O-])cc1

>  <ligand_conf_name>  (1) 
MOL_0_isomer_0_chiral_N_isomer_0_conf_0

>  <ligand_molecule_name>  (1) 
MOL_0_isomer_0_chiral_N_isomer_0

$$$$
MOL_0_isomer_0_chiral_N_isomer_1_conf_0
     RDKit          3D

 22 22  0  0  0  0  0  0  0  0999 V2000
    3.6855    0.9069   -0.4399 C   0  0  0  0  0  0  0  0  0  0  0  0
    2.2945    1.0174   -0.3890 C   0  0  0  0  0  0  0  0  0  0  0  0
    1.5269   -0.0493    0.0812 C   0  0  0  0  0  0  0  0  0  0  0  0
    0.1124    0.1223    0.1676 N   0  0  0  0  0  0  0  0  0  0  0  0
   -0.6427   -0.0250    1.6626 S   0  0  0  0  0  6  0  0  0  0  0  0
   -0.5213   -1.3817    2.1488 O   0  0  0  0  0  0  0  0  0  0  0  0
   -1.9483    0.5838    1.4965 O   0  0  0  0  0  0  0  0  0  0  0  0
    0.3166    1.0514    2.7145 C   0  0  0  0  0  0  0  0  0  0  0  0
    2.1461   -1.2336    0.4728 C   0  0  0  0  0  0  0  0  0  0  0  0
    3.5393   -1.3401    0.4200 C   0  0  0  0  0  0  0  0  0  0  0  0
    4.3308   -0.2700   -0.0292 C   0  0  0  0  0  0  0  0  0  0  0  0
    5.8438   -0.3784   -0.0707 C   0  0  0  0  0  0  0  0  0  0  0  0
    6.3561   -1.4759    0.3125 O   0  0  0  0  0  0  0  0  0  0  0  0
    6.4816    0.6421   -0.4804 O   0  0  0  0  0  1  0  0  0  0  0  0
    4.2875    1.7412   -0.7985 H   0  0  0  0  0  0  0  0  0  0  0  0
    1.8350    1.9462   -0.7098 H   0  0  0  0  0  0  0  0  0  0  0  0
   -0.2771    0.8878   -0.3797 H   0  0  0  0  0  0  0  0  0  0  0  0
   -0.1888    1.1047    3.6817 H   0  0  0  0  0  0  0  0  0  0  0  0
    0.3538    2.0457    2.2655 H   0  0  0  0  0  0  0  0  0  0  0  0
    1.3166    0.6373    2.8501 H   0  0  0  0  0  0  0  0  0  0  0  0
    1.5661   -2.0846    0.8174 H   0  0  0  0  0  0  0  0  0  0  0  0
    4.0258   -2.2640    0.7315 H   0  0  0  0  0  0  0  0  0  0  0  0
 15  1  1  0
  1  2  2  0
  2 16  1  0
  2  3  1  0
  3  4  1  0
  4 17  1  0
  4  5  1  0
  5  6  2  0
  5  7  2  0
  5  8  1  0
  8 18  1  0
  8 19  1  0
  8 20  1  0
  3  9  2  0
  9 21  1  0
  9 10  1  0
 10 22  1  0
  1 11  1  0
 10 11  2  0
 11 12  1  0
 12 13  2  0
 12 14  1  0
M  CHG  1  14  -1
M  END
>  <conformer_energy>  (2) 
-21.88

>  <ligand_smiles>  (2) 
CS(=O)(=O)Nc1ccc(C(=O)[O-])cc1

>  <ligand_conf_name>  (2) 
MOL_0_isomer_0_chiral_N_isomer_1_conf_0

>  <ligand_molecule_name>  (2) 
MOL_0_isomer_0_chiral_N_isomer_1

$$$$
