MOL_0_isomer_0_conf_0
     RDKit          3D

 36 37  0  0  0  0  0  0  0  0999 V2000
    4.0676   -1.2898    1.1553 O   0  0  0  0  0  0  0  0  0  0  0  0
    3.5135   -1.4788   -0.1569 C   0  0  1  0  0  0  0  0  0  0  0  0
    1.9863   -1.4054   -0.1337 C   0  0  2  0  0  0  0  0  0  0  0  0
    1.4832   -1.9090   -1.3839 O   0  0  0  0  0  0  0  0  0  0  0  0
    1.5212    0.0535    0.0962 C   0  0  2  0  0  0  0  0  0  0  0  0
    0.0961    0.2051   -0.0601 N   0  0  0  0  0  0  0  0  0  0  0  0
   -0.7926   -0.3193    0.8462 C   0  0  0  0  0  0  0  0  0  0  0  0
   -0.4338   -0.9965    1.8033 O   0  0  0  0  0  0  0  0  0  0  0  0
   -2.2347   -0.0122    0.6317 C   0  0  0  0  0  0  0  0  0  0  0  0
   -3.0983   -0.0949    1.7322 C   0  0  0  0  0  0  0  0  0  0  0  0
   -4.4587    0.1802    1.5829 C   0  0  0  0  0  0  0  0  0  0  0  0
   -4.9648    0.5312    0.3326 C   0  0  0  0  0  0  0  0  0  0  0  0
   -4.1145    0.6016   -0.7706 C   0  0  0  0  0  0  0  0  0  0  0  0
   -2.7517    0.3277   -0.6257 C   0  0  0  0  0  0  0  0  0  0  0  0
    2.0582    0.9343   -0.8851 O   0  0  0  0  0  0  0  0  0  0  0  0
    3.4918    0.9774   -0.9022 C   0  0  1  0  0  0  0  0  0  0  0  0
    4.0301    1.7635    0.2946 C   0  0  0  0  0  0  0  0  0  0  0  0
    4.1048   -0.4232   -1.1042 C   0  0  1  0  0  0  0  0  0  0  0  0
    5.5286   -0.3913   -0.9590 O   0  0  0  0  0  0  0  0  0  0  0  0
    3.7865   -2.0524    1.6956 H   0  0  0  0  0  0  0  0  0  0  0  0
    3.8475   -2.4677   -0.4941 H   0  0  0  0  0  0  0  0  0  0  0  0
    1.5955   -2.0550    0.6564 H   0  0  0  0  0  0  0  0  0  0  0  0
    0.5440   -1.6470   -1.4104 H   0  0  0  0  0  0  0  0  0  0  0  0
    1.7864    0.3960    1.1026 H   0  0  0  0  0  0  0  0  0  0  0  0
   -0.1838    0.8828   -0.7527 H   0  0  0  0  0  0  0  0  0  0  0  0
   -2.7123   -0.3718    2.7116 H   0  0  0  0  0  0  0  0  0  0  0  0
   -5.1224    0.1177    2.4419 H   0  0  0  0  0  0  0  0  0  0  0  0
   -6.0252    0.7430    0.2164 H   0  0  0  0  0  0  0  0  0  0  0  0
   -4.5161    0.8633   -1.7469 H   0  0  0  0  0  0  0  0  0  0  0  0
   -2.1214    0.3632   -1.5087 H   0  0  0  0  0  0  0  0  0  0  0  0
    3.7591    1.5718   -1.7853 H   0  0  0  0  0  0  0  0  0  0  0  0
    3.5244    2.7330    0.3642 H   0  0  0  0  0  0  0  0  0  0  0  0
    3.8535    1.2532    1.2447 H   0  0  0  0  0  0  0  0  0  0  0  0
    5.1051    1.9445    0.2001 H   0  0  0  0  0  0  0  0  0  0  0  0
    3.8872   -0.7354   -2.1332 H   0  0  0  0  0  0  0  0  0  0  0  0
    5.6938   -0.5319   -0.0045 H   0  0  0  0  0  0  0  0  0  0  0  0
 20  1  1  0
  1  2  1  0
  2 21  1  6
  2  3  1  0
  3 22  1  1
  3  4  1  0
  4 23  1  0
  3  5  1  0
  5 24  1  1
  5  6  1  0
  6 25  1  0
  6  7  1  0
  7  8  2  0
  7  9  1  0
  9 10  2  0
 10 26  1  0
 10 11  1  0
 11 27  1  0
 11 12  2  0
 12 28  1  0
 12 13  1  0
 13 29  1  0
  9 14  1  0
 13 14  2  0
 14 30  1  0
  5 15  1  0
 15 16  1  0
 16 31  1  6
 16 17  1  0
 17 32  1  0
 17 33  1  0
 17 34  1  0
  2 18  1  0
 16 18  1  0
 18 35  1  6
 18 19  1  0
 19 36  1  0
M  END
>  <conformer_energy>  (1) 
70.35

>  <ligand_smiles>  (1) 
C[C@@H]1O[C@@H](NC(=O)c2ccccc2)[C@@H](O)[C@H](O)[C@@H]1O

>  <ligand_conf_name>  (1) 
MOL_0_isomer_0_conf_0

>  <ligand_molecule_name>  (1) 
MOL_0_isomer_0

$$$$
