MOL_0_isomer_0_conf_0
     RDKit          3D

 40 42  0  0  0  0  0  0  0  0999 V2000
    3.8528   -1.9734   -4.8594 C   0  0  0  0  0  0  0  0  0  0  0  0
    5.0878   -2.3452   -4.4896 N   0  0  0  0  0  0  0  0  0  0  0  0
    5.2979   -2.5337   -3.1764 C   0  0  0  0  0  0  0  0  0  0  0  0
    6.5799   -2.9533   -2.8386 N   0  0  0  0  0  0  0  0  0  0  0  0
    7.2254   -3.2128   -1.6232 C   0  0  0  0  0  0  0  0  0  0  0  0
    8.4631   -3.8744   -1.6495 C   0  0  0  0  0  0  0  0  0  0  0  0
    9.1434   -4.1980   -0.4689 C   0  0  0  0  0  0  0  0  0  0  0  0
    8.6063   -3.8740    0.7833 C   0  0  0  0  0  0  0  0  0  0  0  0
    9.3367   -4.2301    2.0641 C   0  0  0  0  0  0  0  0  0  0  0  0
    8.7734   -3.9185    3.1612 O   0  0  0  0  0  0  0  0  0  0  0  0
   10.4593   -4.8166    1.9461 O   0  0  0  0  0  1  0  0  0  0  0  0
    7.3712   -3.2128    0.8120 C   0  0  0  0  0  0  0  0  0  0  0  0
    6.6932   -2.8899   -0.3725 C   0  0  0  0  0  0  0  0  0  0  0  0
    4.3400   -2.3675   -2.2549 N   0  0  0  0  0  0  0  0  0  0  0  0
    3.1126   -1.9888   -2.6417 C   0  0  0  0  0  0  0  0  0  0  0  0
    2.0750   -1.8304   -1.7046 N   0  0  0  0  0  0  0  0  0  0  0  0
    1.9649   -2.2498   -0.3589 C   0  0  0  0  0  0  0  0  0  0  0  0
    2.7837   -3.2422    0.1927 C   0  0  0  0  0  0  0  0  0  0  0  0
    2.6507   -3.6255    1.5278 C   0  0  0  0  0  0  0  0  0  0  0  0
    1.6796   -3.0342    2.3272 C   0  0  0  0  0  0  0  0  0  0  0  0
    0.8331   -2.0602    1.7952 C   0  0  0  0  0  0  0  0  0  0  0  0
    0.9658   -1.6660    0.4582 C   0  0  0  0  0  0  0  0  0  0  0  0
    0.1929   -0.7184   -0.1698 O   0  0  0  0  0  0  0  0  0  0  0  0
   -0.8344   -0.1014    0.5827 C   0  0  0  0  0  0  0  0  0  0  0  0
   -0.3371    0.5817    1.6342 F   0  0  0  0  0  0  0  0  0  0  0  0
   -1.7405   -1.0049    1.0124 F   0  0  0  0  0  0  0  0  0  0  0  0
   -1.4772    0.7790   -0.2193 F   0  0  0  0  0  0  0  0  0  0  0  0
    2.8226   -1.7829   -3.9739 C   0  0  0  0  0  0  0  0  0  0  0  0
    3.7102   -1.8339   -5.9262 H   0  0  0  0  0  0  0  0  0  0  0  0
    7.1282   -3.0811   -3.6740 H   0  0  0  0  0  0  0  0  0  0  0  0
    8.9164   -4.1589   -2.5943 H   0  0  0  0  0  0  0  0  0  0  0  0
   10.1011   -4.7137   -0.5163 H   0  0  0  0  0  0  0  0  0  0  0  0
    6.9341   -2.9469    1.7735 H   0  0  0  0  0  0  0  0  0  0  0  0
    5.7473   -2.3667   -0.2835 H   0  0  0  0  0  0  0  0  0  0  0  0
    1.4194   -1.0940   -1.9323 H   0  0  0  0  0  0  0  0  0  0  0  0
    3.5461   -3.7343   -0.4058 H   0  0  0  0  0  0  0  0  0  0  0  0
    3.3173   -4.3813    1.9384 H   0  0  0  0  0  0  0  0  0  0  0  0
    1.5860   -3.3316    3.3688 H   0  0  0  0  0  0  0  0  0  0  0  0
    0.0914   -1.6308    2.4609 H   0  0  0  0  0  0  0  0  0  0  0  0
    1.8371   -1.4981   -4.3132 H   0  0  0  0  0  0  0  0  0  0  0  0
 29  1  1  0
  1  2  2  0
  2  3  1  0
  3  4  1  0
  4 30  1  0
  4  5  1  0
  5  6  2  0
  6 31  1  0
  6  7  1  0
  7 32  1  0
  7  8  2  0
  8  9  1  0
  9 10  2  0
  9 11  1  0
  8 12  1  0
 12 33  1  0
  5 13  1  0
 12 13  2  0
 13 34  1  0
  3 14  2  0
 14 15  1  0
 15 16  1  0
 16 35  1  0
 16 17  1  0
 17 18  2  0
 18 36  1  0
 18 19  1  0
 19 37  1  0
 19 20  2  0
 20 38  1  0
 20 21  1  0
 21 39  1  0
 17 22  1  0
 21 22  2  0
 22 23  1  0
 23 24  1  0
 24 25  1  0
 24 26  1  0
 24 27  1  0
  1 28  1  0
 15 28  2  0
 28 40  1  0
M  CHG  1  11  -1
M  END
>  <conformer_energy>  (1) 
-26.68

>  <ligand_smiles>  (1) 
O=C([O-])c1ccc(Nc2nccc(Nc3ccccc3OC(F)(F)F)n2)cc1

>  <ligand_conf_name>  (1) 
MOL_0_isomer_0_conf_0

>  <ligand_molecule_name>  (1) 
MOL_0_isomer_0

$$$$
