MOL_0_isomer_0_conf_0
     RDKit          3D

 55 57  0  0  0  0  0  0  0  0999 V2000
    7.6381   -6.9732    2.2644 O   0  0  0  0  0  0  0  0  0  0  0  0
    7.2989   -6.0734    3.3215 C   0  0  1  0  0  0  0  0  0  0  0  0
    8.3989   -5.0338    3.5074 C   0  0  0  0  0  0  0  0  0  0  0  0
    8.1080   -4.0669    2.4572 N   0  0  0  0  0  0  0  0  0  0  0  0
    9.0164   -3.3454    1.7106 C   0  0  0  0  0  0  0  0  0  0  0  0
    8.6436   -2.6714    0.7508 O   0  0  0  0  0  0  0  0  0  0  0  0
   10.4769   -3.4421    2.1431 C   0  0  0  0  0  0  0  0  0  0  0  0
   11.4786   -2.4536    1.4947 C   0  0  0  0  0  0  0  0  0  0  0  0
   11.0829   -0.9932    1.7703 C   0  0  0  0  0  0  0  0  0  0  0  0
   12.8629   -2.7039    2.1324 C   0  0  0  0  0  0  0  0  0  0  0  0
   11.6091   -2.6867   -0.0194 C   0  0  0  0  0  0  0  0  0  0  0  0
    6.6677   -4.0456    2.1562 C   0  0  2  0  0  0  0  0  0  0  0  0
    6.0373   -2.7056    2.6042 C   0  0  0  0  0  0  0  0  0  0  0  0
    5.3426   -2.5856    3.6106 O   0  0  0  0  0  0  0  0  0  0  0  0
    6.3491   -1.6470    1.7806 N   0  0  0  0  0  0  0  0  0  0  0  0
    5.8359   -0.3165    1.9832 C   0  0  0  0  0  0  0  0  0  0  0  0
    4.5841   -0.0937    1.1761 C   0  0  0  0  0  0  0  0  0  0  0  0
    4.6509    0.3752   -0.1410 C   0  0  0  0  0  0  0  0  0  0  0  0
    3.4820    0.5627   -0.8880 C   0  0  0  0  0  0  0  0  0  0  0  0
    2.2207    0.2783   -0.3418 C   0  0  0  0  0  0  0  0  0  0  0  0
    1.0121    0.4826   -1.1291 C   0  0  0  0  0  0  0  0  0  0  0  0
   -0.1826    0.1083   -0.5651 O   0  0  0  0  0  0  0  0  0  0  0  0
   -1.1092    0.4117   -1.5135 C   0  0  0  0  0  0  0  0  0  0  0  0
   -0.6301    0.9396   -2.6162 N   0  0  0  0  0  0  0  0  0  0  0  0
    0.7217    0.9869   -2.3801 C   0  0  0  0  0  0  0  0  0  0  0  0
    2.1630   -0.2056    0.9724 C   0  0  0  0  0  0  0  0  0  0  0  0
    3.3294   -0.3932    1.7216 C   0  0  0  0  0  0  0  0  0  0  0  0
    6.0837   -5.2451    2.9225 C   0  0  0  0  0  0  0  0  0  0  0  0
    7.9269   -6.4415    1.4992 H   0  0  0  0  0  0  0  0  0  0  0  0
    7.1273   -6.6679    4.2221 H   0  0  0  0  0  0  0  0  0  0  0  0
    9.3997   -5.4570    3.4034 H   0  0  0  0  0  0  0  0  0  0  0  0
    8.3044   -4.5152    4.4667 H   0  0  0  0  0  0  0  0  0  0  0  0
   10.8060   -4.4681    1.9335 H   0  0  0  0  0  0  0  0  0  0  0  0
   10.5055   -3.3052    3.2328 H   0  0  0  0  0  0  0  0  0  0  0  0
   11.8522   -0.3023    1.4045 H   0  0  0  0  0  0  0  0  0  0  0  0
   10.1464   -0.7193    1.2769 H   0  0  0  0  0  0  0  0  0  0  0  0
   10.9617   -0.8138    2.8440 H   0  0  0  0  0  0  0  0  0  0  0  0
   13.1949   -3.7349    1.9651 H   0  0  0  0  0  0  0  0  0  0  0  0
   13.6230   -2.0370    1.7076 H   0  0  0  0  0  0  0  0  0  0  0  0
   12.8399   -2.5321    3.2150 H   0  0  0  0  0  0  0  0  0  0  0  0
   11.8513   -3.7326   -0.2381 H   0  0  0  0  0  0  0  0  0  0  0  0
   12.4056   -2.0668   -0.4445 H   0  0  0  0  0  0  0  0  0  0  0  0
   10.6914   -2.4366   -0.5581 H   0  0  0  0  0  0  0  0  0  0  0  0
    6.5290   -4.1647    1.0744 H   0  0  0  0  0  0  0  0  0  0  0  0
    7.0363   -1.8004    1.0432 H   0  0  0  0  0  0  0  0  0  0  0  0
    6.6165    0.3899    1.6786 H   0  0  0  0  0  0  0  0  0  0  0  0
    5.6419   -0.1415    3.0481 H   0  0  0  0  0  0  0  0  0  0  0  0
    5.6139    0.5961   -0.5981 H   0  0  0  0  0  0  0  0  0  0  0  0
    3.5757    0.9302   -1.9072 H   0  0  0  0  0  0  0  0  0  0  0  0
   -2.1393    0.1928   -1.2705 H   0  0  0  0  0  0  0  0  0  0  0  0
    1.4072    1.3804   -3.1177 H   0  0  0  0  0  0  0  0  0  0  0  0
    1.2068   -0.4463    1.4332 H   0  0  0  0  0  0  0  0  0  0  0  0
    3.2554   -0.7830    2.7373 H   0  0  0  0  0  0  0  0  0  0  0  0
    5.3853   -5.8039    2.2904 H   0  0  0  0  0  0  0  0  0  0  0  0
    5.5466   -4.9383    3.8263 H   0  0  0  0  0  0  0  0  0  0  0  0
 29  1  1  0
  1  2  1  0
  2 30  1  1
  2  3  1  0
  3 31  1  0
  3 32  1  0
  3  4  1  0
  4  5  1  0
  5  6  2  0
  5  7  1  0
  7 33  1  0
  7 34  1  0
  7  8  1  0
  8  9  1  0
  9 35  1  0
  9 36  1  0
  9 37  1  0
  8 10  1  0
 10 38  1  0
 10 39  1  0
 10 40  1  0
  8 11  1  0
 11 41  1  0
 11 42  1  0
 11 43  1  0
  4 12  1  0
 12 44  1  6
 12 13  1  0
 13 14  2  0
 13 15  1  0
 15 45  1  0
 15 16  1  0
 16 46  1  0
 16 47  1  0
 16 17  1  0
 17 18  2  0
 18 48  1  0
 18 19  1  0
 19 49  1  0
 19 20  2  0
 20 21  1  0
 21 22  1  0
 22 23  1  0
 23 50  1  0
 23 24  2  0
 21 25  2  0
 24 25  1  0
 25 51  1  0
 20 26  1  0
 26 52  1  0
 17 27  1  0
 26 27  2  0
 27 53  1  0
  2 28  1  0
 12 28  1  0
 28 54  1  0
 28 55  1  0
M  END
>  <conformer_energy>  (1) 
47.11

>  <ligand_smiles>  (1) 
CC(C)(C)CC(=O)N1C[C@H](O)C[C@H]1C(=O)NCc1ccc(-c2cnco2)cc1

>  <ligand_conf_name>  (1) 
MOL_0_isomer_0_conf_0

>  <ligand_molecule_name>  (1) 
MOL_0_isomer_0

$$$$
