MOL_0_isomer_0_conf_0
     RDKit          3D

 49 51  0  0  0  0  0  0  0  0999 V2000
    0.5829    1.6138   10.7951 O   0  0  0  0  0  0  0  0  0  0  0  0
    1.6346    0.7241   10.7411 C   0  0  0  0  0  0  0  0  0  0  0  0
    1.9494    0.0169   11.8932 C   0  0  0  0  0  0  0  0  0  0  0  0
    3.0084   -0.8780   11.8333 C   0  0  0  0  0  0  0  0  0  0  0  0
    3.3735   -1.6462   13.0254 N   0  0  0  0  0  4  0  0  0  0  0  0
    2.7346   -1.4433   14.0699 O   0  0  0  0  0  0  0  0  0  0  0  0
    4.3028   -2.4630   12.9322 O   0  0  0  0  0  1  0  0  0  0  0  0
    3.7265   -1.0520   10.6465 C   0  0  0  0  0  0  0  0  0  0  0  0
    3.3838   -0.3182    9.4886 C   0  0  0  0  0  0  0  0  0  0  0  0
    4.2413   -0.6030    8.2731 C   0  0  0  0  0  0  0  0  0  0  0  0
    5.1543   -1.4263    8.3174 O   0  0  0  0  0  0  0  0  0  0  0  0
    3.9321    0.0978    7.1365 N   0  0  0  0  0  0  0  0  0  0  0  0
    4.6256   -0.0235    5.8921 C   0  0  0  0  0  0  0  0  0  0  0  0
    3.9221   -1.0584    5.0695 C   0  0  0  0  0  0  0  0  0  0  0  0
    3.4961   -0.8781    3.8080 C   0  0  0  0  0  0  0  0  0  0  0  0
    2.7606   -1.9295    3.0312 C   0  0  1  0  0  0  0  0  0  0  0  0
    1.7882   -1.2636    2.2039 O   0  0  0  0  0  0  0  0  0  0  0  0
    2.1216   -1.4960    0.8249 C   0  0  1  0  0  0  0  0  0  0  0  0
    1.8947    0.0090   -0.1890 S   0  0  0  0  0  0  0  0  0  0  0  0
    0.1146    0.0762   -0.2583 C   0  0  0  0  0  0  0  0  0  0  0  0
   -0.6584    0.2416    0.8880 C   0  0  0  0  0  0  0  0  0  0  0  0
   -2.0349    0.2988    0.7494 C   0  0  0  0  0  0  0  0  0  0  0  0
   -2.6761    0.2113   -0.4367 N   0  0  0  0  0  0  0  0  0  0  0  0
   -1.9014    0.0693   -1.5325 C   0  0  0  0  0  0  0  0  0  0  0  0
   -0.5190    0.0012   -1.4967 C   0  0  0  0  0  0  0  0  0  0  0  0
    3.5821   -1.9597    0.7978 C   0  0  2  0  0  0  0  0  0  0  0  0
    3.9020   -2.7903   -0.3196 O   0  0  0  0  0  0  0  0  0  0  0  0
    3.6682   -2.7379    2.0989 C   0  0  2  0  0  0  0  0  0  0  0  0
    3.1426   -4.0615    1.8644 O   0  0  0  0  0  0  0  0  0  0  0  0
    2.3020    0.6162    9.4947 C   0  0  0  0  0  0  0  0  0  0  0  0
    1.9085    1.3310    8.5017 O   0  0  0  0  0  1  0  0  0  0  0  0
    0.6147    1.9393    9.8607 H   0  0  0  0  0  0  0  0  0  0  0  0
    1.3677    0.1809   12.7933 H   0  0  0  0  0  0  0  0  0  0  0  0
    4.5570   -1.7535   10.6019 H   0  0  0  0  0  0  0  0  0  0  0  0
    3.1297    0.7365    7.2393 H   0  0  0  0  0  0  0  0  0  0  0  0
    5.6618   -0.3289    6.0685 H   0  0  0  0  0  0  0  0  0  0  0  0
    4.6233    0.9583    5.4090 H   0  0  0  0  0  0  0  0  0  0  0  0
    3.7531   -2.0089    5.5726 H   0  0  0  0  0  0  0  0  0  0  0  0
    3.6600    0.0805    3.3206 H   0  0  0  0  0  0  0  0  0  0  0  0
    2.2056   -2.5878    3.7096 H   0  0  0  0  0  0  0  0  0  0  0  0
    1.4628   -2.2812    0.4349 H   0  0  0  0  0  0  0  0  0  0  0  0
   -0.2099    0.3312    1.8722 H   0  0  0  0  0  0  0  0  0  0  0  0
   -2.6759    0.4239    1.6178 H   0  0  0  0  0  0  0  0  0  0  0  0
   -2.4389    0.0109   -2.4743 H   0  0  0  0  0  0  0  0  0  0  0  0
    0.0447   -0.1095   -2.4163 H   0  0  0  0  0  0  0  0  0  0  0  0
    4.2787   -1.1132    0.8261 H   0  0  0  0  0  0  0  0  0  0  0  0
    3.5968   -3.6858   -0.0621 H   0  0  0  0  0  0  0  0  0  0  0  0
    4.6957   -2.8608    2.4553 H   0  0  0  0  0  0  0  0  0  0  0  0
    3.1282   -4.5125    2.7298 H   0  0  0  0  0  0  0  0  0  0  0  0
 32  1  1  0
  1  2  1  0
  2  3  2  0
  3 33  1  0
  3  4  1  0
  4  5  1  0
  5  6  2  0
  5  7  1  0
  4  8  2  0
  8 34  1  0
  8  9  1  0
  9 10  1  0
 10 11  2  0
 10 12  1  0
 12 35  1  0
 12 13  1  0
 13 36  1  0
 13 37  1  0
 13 14  1  0
 14 38  1  0
 14 15  2  0
 15 39  1  0
 15 16  1  0
 16 40  1  1
 16 17  1  0
 17 18  1  0
 18 41  1  6
 18 19  1  0
 19 20  1  0
 20 21  2  0
 21 42  1  0
 21 22  1  0
 22 43  1  0
 22 23  2  0
 23 24  1  0
 24 44  1  0
 20 25  1  0
 24 25  2  0
 25 45  1  0
 18 26  1  0
 26 46  1  1
 26 27  1  0
 27 47  1  0
 16 28  1  0
 26 28  1  0
 28 48  1  1
 28 29  1  0
 29 49  1  0
  2 30  1  0
  9 30  2  0
 30 31  1  0
M  CHG  3   5   1   7  -1  31  -1
M  END
>  <conformer_energy>  (1) 
53.51

>  <ligand_smiles>  (1) 
O=C(NC/C=C/[C@H]1O[C@@H](Sc2ccncc2)[C@H](O)[C@@H]1O)c1cc([N+](=O)[O-])cc(O)c1[O-]

>  <ligand_conf_name>  (1) 
MOL_0_isomer_0_conf_0

>  <ligand_molecule_name>  (1) 
MOL_0_isomer_0

$$$$
