MOL_0_isomer_0_conf_0
     RDKit          3D

 22 22  0  0  0  0  0  0  0  0999 V2000
   -1.8724    0.3229    1.2996 C   0  0  0  0  0  0  0  0  0  0  0  0
   -0.9973   -0.2886    0.2661 C   0  0  0  0  0  0  0  0  0  0  0  0
   -1.6302   -1.0330   -0.7103 O   0  0  0  0  0  0  0  0  0  0  0  0
   -0.5443   -1.4819   -1.5510 N   0  0  0  0  0  2  0  0  0  0  0  0
    0.5989   -1.0108   -1.0661 C   0  0  0  0  0  0  0  0  0  0  0  0
    1.7380   -1.1218   -1.5127 O   0  0  0  0  0  0  0  0  0  0  0  0
    0.3221   -0.2077    0.1324 C   0  0  0  0  0  0  0  0  0  0  0  0
    1.3855    0.4833    0.9125 C   0  0  0  0  0  0  0  0  0  0  0  0
    1.9846    1.6716    0.1586 C   0  0  1  0  0  0  0  0  0  0  0  0
    3.0366    2.3943    1.0502 C   0  0  0  0  0  0  0  0  0  0  0  0
    4.1649    2.4517    0.4551 O   0  0  0  0  0  0  0  0  0  0  0  0
    2.6647    2.8312    2.1637 O   0  0  0  0  0  1  0  0  0  0  0  0
    2.6453    1.2218   -1.1313 N   0  0  0  0  0  4  0  0  0  0  0  0
   -2.6218    0.9662    0.8276 H   0  0  0  0  0  0  0  0  0  0  0  0
   -1.3109    0.9334    2.0122 H   0  0  0  0  0  0  0  0  0  0  0  0
   -2.3946   -0.4573    1.8623 H   0  0  0  0  0  0  0  0  0  0  0  0
    0.9772    0.8232    1.8714 H   0  0  0  0  0  0  0  0  0  0  0  0
    2.1728   -0.2376    1.1696 H   0  0  0  0  0  0  0  0  0  0  0  0
    1.2143    2.3940   -0.1349 H   0  0  0  0  0  0  0  0  0  0  0  0
    3.6415    1.4894   -0.9958 H   0  0  0  0  0  0  0  0  0  0  0  0
    2.2594    1.6783   -1.9527 H   0  0  0  0  0  0  0  0  0  0  0  0
    2.5794    0.1937   -1.2709 H   0  0  0  0  0  0  0  0  0  0  0  0
 14  1  1  0
  1 15  1  0
  1 16  1  0
  1  2  1  0
  2  3  1  0
  3  4  1  0
  4  5  1  0
  5  6  2  0
  2  7  2  0
  5  7  1  0
  7  8  1  0
  8 17  1  0
  8 18  1  0
  8  9  1  0
  9 19  1  6
  9 10  1  0
 10 11  2  0
 10 12  1  0
  9 13  1  0
 13 20  1  0
 13 21  1  0
 13 22  1  0
M  CHG  3   4  -1  12  -1  13   1
M  END
>  <conformer_energy>  (1) 
-40.98

>  <ligand_smiles>  (1) 
Cc1o[n-]c(=O)c1C[C@H]([NH3+])C(=O)[O-]

>  <ligand_conf_name>  (1) 
MOL_0_isomer_0_conf_0

>  <ligand_molecule_name>  (1) 
MOL_0_isomer_0

$$$$
