MOL_0_isomer_0_conf_0
     RDKit          3D

 72 77  0  0  0  0  0  0  0  0999 V2000
   11.3780   -7.8999  -10.6005 C   0  0  0  0  0  0  0  0  0  0  0  0
   11.7261   -6.8171   -9.8787 C   0  0  0  0  0  0  0  0  0  0  0  0
   10.8009   -6.2309   -8.8821 C   0  0  0  0  0  0  0  0  0  0  0  0
   11.2326   -5.8868   -7.5988 C   0  0  0  0  0  0  0  0  0  0  0  0
   12.5056   -6.1068   -7.2337 F   0  0  0  0  0  0  0  0  0  0  0  0
   10.3684   -5.3244   -6.6569 C   0  0  0  0  0  0  0  0  0  0  0  0
    9.0240   -5.0748   -6.9648 C   0  0  0  0  0  0  0  0  0  0  0  0
    8.2118   -4.4932   -5.9894 N   0  0  0  0  0  0  0  0  0  0  0  0
    6.9151   -3.9790   -5.9828 C   0  0  0  0  0  0  0  0  0  0  0  0
    6.5020   -3.5792   -4.7657 N   0  0  0  0  0  0  0  0  0  0  0  0
    5.2729   -3.0278   -4.6245 C   0  0  0  0  0  0  0  0  0  0  0  0
    4.8932   -2.6186   -3.2952 C   0  0  0  0  0  0  0  0  0  0  0  0
    5.2587   -3.1808   -2.0529 C   0  0  0  0  0  0  0  0  0  0  0  0
    4.7578   -2.5053   -1.0160 N   0  0  0  0  0  0  0  0  0  0  0  0
    4.0871   -1.4940   -1.5866 N   0  0  0  0  0  0  0  0  0  0  0  0
    3.4625   -0.4272   -0.7817 C   0  0  0  0  0  0  0  0  0  0  0  0
    4.3695    0.7833   -0.6102 C   0  0  0  0  0  0  0  0  0  0  0  0
    5.5614    0.4832    0.1959 C   0  0  0  0  0  0  0  0  0  0  0  0
    6.5017    0.2742    0.8415 N   0  0  0  0  0  0  0  0  0  0  0  0
    2.0256   -0.0963   -1.2572 C   0  0  0  0  0  0  0  0  0  0  0  0
    1.5767   -0.1019    0.1714 N   0  0  0  0  0  0  0  0  0  0  0  0
   -0.0287   -0.4154    0.6171 S   0  0  0  0  0  6  0  0  0  0  0  0
   -0.2912   -1.8038    0.3039 O   0  0  0  0  0  0  0  0  0  0  0  0
   -0.8290    0.6506    0.0537 O   0  0  0  0  0  0  0  0  0  0  0  0
    0.0565   -0.2137    2.3928 C   0  0  0  0  0  0  0  0  0  0  0  0
   -1.3096   -0.3785    3.0300 C   0  0  0  0  0  0  0  0  0  0  0  0
    2.7528   -0.9793    0.4874 C   0  0  0  0  0  0  0  0  0  0  0  0
    4.1581   -1.5005   -2.9546 C   0  0  0  0  0  0  0  0  0  0  0  0
    4.4394   -2.9004   -5.7338 C   0  0  0  0  0  0  0  0  0  0  0  0
    3.1239   -2.4450   -6.0335 C   0  0  0  0  0  0  0  0  0  0  0  0
    2.9180   -2.6139   -7.3871 C   0  0  0  0  0  0  0  0  0  0  0  0
    4.0560   -3.1657   -7.9170 N   0  0  0  0  0  0  0  0  0  0  0  0
    4.9807   -3.3532   -6.9260 C   0  0  0  0  0  0  0  0  0  0  0  0
    6.1946   -3.8892   -7.1098 N   0  0  0  0  0  0  0  0  0  0  0  0
    8.5884   -5.3991   -8.2511 C   0  0  0  0  0  0  0  0  0  0  0  0
    9.4609   -5.9667   -9.1844 C   0  0  0  0  0  0  0  0  0  0  0  0
    8.9812   -6.2445  -10.4083 F   0  0  0  0  0  0  0  0  0  0  0  0
   13.0696   -6.1501  -10.0703 C   0  0  0  0  0  0  0  0  0  0  0  0
   13.7522   -6.5655  -11.3783 C   0  0  0  0  0  0  0  0  0  0  0  0
   13.6871   -8.0687  -11.5268 N   0  0  2  0  0  4  0  0  0  0  0  0
   14.5282   -8.5767  -12.6556 C   0  0  0  0  0  0  0  0  0  0  0  0
   12.2589   -8.5401  -11.6215 C   0  0  0  0  0  0  0  0  0  0  0  0
   10.4014   -8.3638  -10.4659 H   0  0  0  0  0  0  0  0  0  0  0  0
   10.7673   -5.0804   -5.6747 H   0  0  0  0  0  0  0  0  0  0  0  0
    8.5843   -4.4128   -5.0522 H   0  0  0  0  0  0  0  0  0  0  0  0
    5.8718   -4.0544   -1.8667 H   0  0  0  0  0  0  0  0  0  0  0  0
    3.8238    1.6015   -0.1229 H   0  0  0  0  0  0  0  0  0  0  0  0
    4.6800    1.1708   -1.5890 H   0  0  0  0  0  0  0  0  0  0  0  0
    1.8842    0.8753   -1.7394 H   0  0  0  0  0  0  0  0  0  0  0  0
    1.5169   -0.8684   -1.8471 H   0  0  0  0  0  0  0  0  0  0  0  0
    0.7495   -0.9673    2.7798 H   0  0  0  0  0  0  0  0  0  0  0  0
    0.4518    0.7868    2.5937 H   0  0  0  0  0  0  0  0  0  0  0  0
   -2.0117    0.3731    2.6528 H   0  0  0  0  0  0  0  0  0  0  0  0
   -1.2399   -0.2666    4.1162 H   0  0  0  0  0  0  0  0  0  0  0  0
   -1.7293   -1.3662    2.8133 H   0  0  0  0  0  0  0  0  0  0  0  0
    3.2079   -0.7347    1.4508 H   0  0  0  0  0  0  0  0  0  0  0  0
    2.4835   -2.0418    0.4748 H   0  0  0  0  0  0  0  0  0  0  0  0
    3.7080   -0.7208   -3.5529 H   0  0  0  0  0  0  0  0  0  0  0  0
    2.3955   -2.0453   -5.3400 H   0  0  0  0  0  0  0  0  0  0  0  0
    2.0613   -2.3992   -8.0134 H   0  0  0  0  0  0  0  0  0  0  0  0
    4.2047   -3.4140   -8.8846 H   0  0  0  0  0  0  0  0  0  0  0  0
    7.5623   -5.2291   -8.5610 H   0  0  0  0  0  0  0  0  0  0  0  0
   12.9584   -5.0586  -10.0727 H   0  0  0  0  0  0  0  0  0  0  0  0
   13.7301   -6.4110   -9.2337 H   0  0  0  0  0  0  0  0  0  0  0  0
   13.2634   -6.1251  -12.2556 H   0  0  0  0  0  0  0  0  0  0  0  0
   14.8088   -6.2759  -11.3679 H   0  0  0  0  0  0  0  0  0  0  0  0
   14.0624   -8.4712  -10.6580 H   0  0  0  0  0  0  0  0  0  0  0  0
   14.1550   -8.1507  -13.5913 H   0  0  0  0  0  0  0  0  0  0  0  0
   14.4583   -9.6676  -12.6671 H   0  0  0  0  0  0  0  0  0  0  0  0
   15.5620   -8.2710  -12.4726 H   0  0  0  0  0  0  0  0  0  0  0  0
   12.2792   -9.6254  -11.4770 H   0  0  0  0  0  0  0  0  0  0  0  0
   11.8942   -8.3159  -12.6303 H   0  0  0  0  0  0  0  0  0  0  0  0
 43  1  1  0
  1  2  2  0
  2  3  1  0
  3  4  2  0
  4  5  1  0
  4  6  1  0
  6 44  1  0
  6  7  2  0
  7  8  1  0
  8 45  1  0
  8  9  1  0
  9 10  2  0
 10 11  1  0
 11 12  1  0
 12 13  1  0
 13 46  1  0
 13 14  2  0
 14 15  1  0
 15 16  1  0
 16 17  1  0
 17 47  1  0
 17 48  1  0
 17 18  1  0
 18 19  3  0
 16 20  1  0
 20 49  1  0
 20 50  1  0
 20 21  1  0
 21 22  1  0
 22 23  2  0
 22 24  2  0
 22 25  1  0
 25 51  1  0
 25 52  1  0
 25 26  1  0
 26 53  1  0
 26 54  1  0
 26 55  1  0
 16 27  1  0
 21 27  1  0
 27 56  1  0
 27 57  1  0
 12 28  2  0
 15 28  1  0
 28 58  1  0
 11 29  2  0
 29 30  1  0
 30 59  1  0
 30 31  2  0
 31 60  1  0
 31 32  1  0
 32 61  1  0
 29 33  1  0
 32 33  1  0
  9 34  1  0
 33 34  2  0
  7 35  1  0
 35 62  1  0
  3 36  1  0
 35 36  2  0
 36 37  1  0
  2 38  1  0
 38 63  1  0
 38 64  1  0
 38 39  1  0
 39 65  1  0
 39 66  1  0
 39 40  1  0
 40 67  1  1
 40 41  1  0
 41 68  1  0
 41 69  1  0
 41 70  1  0
  1 42  1  0
 40 42  1  0
 42 71  1  0
 42 72  1  0
M  CHG  1  40   1
M  END
>  <conformer_energy>  (1) 
-92.76

>  <ligand_smiles>  (1) 
CCS(=O)(=O)N1CC(CC#N)(n2cc(-c3nc(Nc4cc(F)c(C5=CC[N@@H+](C)CC5)c(F)c4)nc4[nH]ccc34)cn2)C1

>  <ligand_conf_name>  (1) 
MOL_0_isomer_0_conf_0

>  <ligand_molecule_name>  (1) 
MOL_0_isomer_0

$$$$
