MOL_0_isomer_0_conf_0
     RDKit          3D

 21 23  0  0  0  0  0  0  0  0999 V2000
    3.5906   -0.0460    1.2431 C   0  0  0  0  0  0  0  0  0  0  0  0
    2.1797   -0.0236    1.2598 C   0  0  0  0  0  0  0  0  0  0  0  0
    1.4401   -0.0141    0.0721 C   0  0  0  0  0  0  0  0  0  0  0  0
    0.0817    0.0073   -0.0202 O   0  0  0  0  0  0  0  0  0  0  0  0
   -0.6547    0.0213    1.1980 C   0  0  0  0  0  0  0  0  0  0  0  0
    2.1693   -0.0280   -1.1066 C   0  0  0  0  0  0  0  0  0  0  0  0
    3.5762   -0.0504   -1.1390 C   0  0  0  0  0  0  0  0  0  0  0  0
    4.2385   -0.0641   -2.8120 S   0  0  0  0  0  0  0  0  0  0  0  0
    2.6132   -0.0394   -3.3988 C   0  0  0  0  0  0  0  0  0  0  0  0
    2.0477   -0.0328   -4.5746 N   0  0  0  0  0  0  0  0  0  0  0  0
    0.6737   -0.0105   -4.3370 N   0  0  0  0  0  0  0  0  0  0  0  0
    0.4797   -0.0049   -3.0279 C   0  0  0  0  0  0  0  0  0  0  0  0
    1.6839   -0.0228   -2.4074 N   0  0  0  0  0  0  0  0  0  0  0  0
    4.2989   -0.0596    0.0388 C   0  0  0  0  0  0  0  0  0  0  0  0
    4.1357   -0.0529    2.1856 H   0  0  0  0  0  0  0  0  0  0  0  0
    1.6942   -0.0140    2.2319 H   0  0  0  0  0  0  0  0  0  0  0  0
   -1.7190    0.0377    0.9441 H   0  0  0  0  0  0  0  0  0  0  0  0
   -0.4366    0.9228    1.7799 H   0  0  0  0  0  0  0  0  0  0  0  0
   -0.4653   -0.8845    1.7833 H   0  0  0  0  0  0  0  0  0  0  0  0
   -0.4747    0.0113   -2.5235 H   0  0  0  0  0  0  0  0  0  0  0  0
    5.3845   -0.0768    0.0342 H   0  0  0  0  0  0  0  0  0  0  0  0
 15  1  1  0
  1  2  2  0
  2 16  1  0
  2  3  1  0
  3  4  1  0
  4  5  1  0
  5 17  1  0
  5 18  1  0
  5 19  1  0
  3  6  2  0
  6  7  1  0
  7  8  1  0
  8  9  1  0
  9 10  2  0
 10 11  1  0
 11 12  2  0
 12 20  1  0
  9 13  1  0
  6 13  1  0
 12 13  1  0
  1 14  1  0
  7 14  2  0
 14 21  1  0
M  END
>  <conformer_energy>  (1) 
37.24

>  <ligand_smiles>  (1) 
COc1cccc2sc3nncn3c12

>  <ligand_conf_name>  (1) 
MOL_0_isomer_0_conf_0

>  <ligand_molecule_name>  (1) 
MOL_0_isomer_0

$$$$
