MOL_0_isomer_0_conf_0
     RDKit          3D

 34 36  0  0  0  0  0  0  0  0999 V2000
    2.9055    1.4616    0.4765 C   0  0  0  0  0  0  0  0  0  0  0  0
    4.1238    0.8637    0.4128 O   0  0  0  0  0  0  0  0  0  0  0  0
    3.9002   -0.4794    0.3932 C   0  0  0  0  0  0  0  0  0  0  0  0
    4.8881   -1.4630    0.3441 C   0  0  0  0  0  0  0  0  0  0  0  0
    4.4685   -2.8071    0.3465 C   0  0  0  0  0  0  0  0  0  0  0  0
    5.4600   -3.8967    0.3185 C   0  0  0  0  0  0  0  0  0  0  0  0
    6.4214   -3.9716   -0.7016 C   0  0  0  0  0  0  0  0  0  0  0  0
    7.3585   -5.0047   -0.7261 C   0  0  0  0  0  0  0  0  0  0  0  0
    7.3463   -5.9766    0.2729 C   0  0  0  0  0  0  0  0  0  0  0  0
    6.4035   -5.9254    1.3009 C   0  0  0  0  0  0  0  0  0  0  0  0
    6.5022   -6.9362    2.2188 O   0  0  0  0  0  0  0  0  0  0  0  0
    5.5676   -6.9167    3.2915 C   0  0  0  0  0  0  0  0  0  0  0  0
    5.4670   -4.8883    1.3186 C   0  0  0  0  0  0  0  0  0  0  0  0
    3.0909   -3.0954    0.3908 C   0  0  0  0  0  0  0  0  0  0  0  0
    2.1194   -2.0826    0.4343 C   0  0  0  0  0  0  0  0  0  0  0  0
    2.5383   -0.7422    0.4337 C   0  0  0  0  0  0  0  0  0  0  0  0
    1.8880    0.5279    0.4726 C   0  0  0  0  0  0  0  0  0  0  0  0
    0.4212    0.7996    0.4940 C   0  0  0  0  0  0  0  0  0  0  0  0
   -0.2059    0.4247    1.8376 C   0  0  0  0  0  0  0  0  0  0  0  0
   -0.7236   -0.7300    1.8903 O   0  0  0  0  0  0  0  0  0  0  0  0
   -0.1763    1.3293    2.7220 O   0  0  0  0  0  1  0  0  0  0  0  0
    2.9153    2.5413    0.5165 H   0  0  0  0  0  0  0  0  0  0  0  0
    5.9347   -1.1849    0.3292 H   0  0  0  0  0  0  0  0  0  0  0  0
    6.4350   -3.2242   -1.4925 H   0  0  0  0  0  0  0  0  0  0  0  0
    8.0944   -5.0523   -1.5236 H   0  0  0  0  0  0  0  0  0  0  0  0
    8.0769   -6.7807    0.2525 H   0  0  0  0  0  0  0  0  0  0  0  0
    5.7775   -7.7788    3.9320 H   0  0  0  0  0  0  0  0  0  0  0  0
    4.5413   -7.0184    2.9234 H   0  0  0  0  0  0  0  0  0  0  0  0
    5.6840   -6.0142    3.9007 H   0  0  0  0  0  0  0  0  0  0  0  0
    4.7284   -4.8153    2.1119 H   0  0  0  0  0  0  0  0  0  0  0  0
    2.7487   -4.1288    0.3942 H   0  0  0  0  0  0  0  0  0  0  0  0
    1.0603   -2.3243    0.4929 H   0  0  0  0  0  0  0  0  0  0  0  0
    0.2268    1.8605    0.2933 H   0  0  0  0  0  0  0  0  0  0  0  0
   -0.0695    0.2376   -0.3101 H   0  0  0  0  0  0  0  0  0  0  0  0
 22  1  1  0
  1  2  1  0
  2  3  1  0
  3  4  2  0
  4 23  1  0
  4  5  1  0
  5  6  1  0
  6  7  2  0
  7 24  1  0
  7  8  1  0
  8 25  1  0
  8  9  2  0
  9 26  1  0
  9 10  1  0
 10 11  1  0
 11 12  1  0
 12 27  1  0
 12 28  1  0
 12 29  1  0
  6 13  1  0
 10 13  2  0
 13 30  1  0
  5 14  2  0
 14 31  1  0
 14 15  1  0
 15 32  1  0
  3 16  1  0
 15 16  2  0
  1 17  2  0
 16 17  1  0
 17 18  1  0
 18 33  1  0
 18 34  1  0
 18 19  1  0
 19 20  2  0
 19 21  1  0
M  CHG  1  21  -1
M  END
>  <conformer_energy>  (1) 
65.72

>  <ligand_smiles>  (1) 
COc1cccc(-c2ccc3c(CC(=O)[O-])coc3c2)c1

>  <ligand_conf_name>  (1) 
MOL_0_isomer_0_conf_0

>  <ligand_molecule_name>  (1) 
MOL_0_isomer_0

$$$$
