1NAV - prepared_ligand_conf_0
     RDKit          3D

 38 39  0  0  0  0  0  0  0  0999 V2000
    8.7595    2.6690   -3.8770 O   0  0  0  0  0  0  0  0  0  0  0  0
    7.8946    2.1843   -2.9384 C   0  0  0  0  0  0  0  0  0  0  0  0
    8.4173    2.1189   -1.6455 C   0  0  0  0  0  0  0  0  0  0  0  0
    7.6351    1.6519   -0.5923 C   0  0  0  0  0  0  0  0  0  0  0  0
    6.3227    1.2488   -0.8245 C   0  0  0  0  0  0  0  0  0  0  0  0
    5.6443    0.8035    0.2923 O   0  0  0  0  0  0  0  0  0  0  0  0
    4.2980    0.5471    0.1728 C   0  0  0  0  0  0  0  0  0  0  0  0
    3.3608    1.5718    0.3537 C   0  0  0  0  0  0  0  0  0  0  0  0
    3.8492    3.1903    0.7142 Cl  0  0  0  0  0  0  0  0  0  0  0  0
    1.9960    1.3010    0.2361 C   0  0  0  0  0  0  0  0  0  0  0  0
    1.5515    0.0036   -0.0532 C   0  0  0  0  0  0  0  0  0  0  0  0
    0.0768   -0.2870   -0.1829 C   0  0  0  0  0  0  0  0  0  0  0  0
   -0.5348   -0.6776    1.1618 C   0  0  0  0  0  0  0  0  0  0  0  0
   -0.5237   -1.9161    1.4173 O   0  0  0  0  0  0  0  0  0  0  0  0
   -1.0003    0.2831    1.8396 O   0  0  0  0  0  0  0  0  0  0  0  0
    2.4910   -1.0289   -0.1795 C   0  0  0  0  0  0  0  0  0  0  0  0
    3.8561   -0.7606   -0.0623 C   0  0  0  0  0  0  0  0  0  0  0  0
    4.9714   -2.0693   -0.2377 Cl  0  0  0  0  0  0  0  0  0  0  0  0
    5.8066    1.3070   -2.1253 C   0  0  0  0  0  0  0  0  0  0  0  0
    6.5811    1.7753   -3.2115 C   0  0  0  0  0  0  0  0  0  0  0  0
    5.9153    1.7877   -4.5800 C   0  0  0  0  0  0  0  0  0  0  0  0
    6.6220    0.8889   -5.5983 C   0  0  0  0  0  0  0  0  0  0  0  0
    5.6960    3.2053   -5.1144 C   0  0  0  0  0  0  0  0  0  0  0  0
    8.2941    2.7694   -4.7174 H   0  0  0  0  0  0  0  0  0  0  0  0
    9.4391    2.4373   -1.4585 H   0  0  0  0  0  0  0  0  0  0  0  0
    8.0477    1.6064    0.4117 H   0  0  0  0  0  0  0  0  0  0  0  0
    1.2630    2.0917    0.3895 H   0  0  0  0  0  0  0  0  0  0  0  0
   -0.4444    0.5896   -0.5880 H   0  0  0  0  0  0  0  0  0  0  0  0
   -0.0836   -1.0910   -0.9123 H   0  0  0  0  0  0  0  0  0  0  0  0
    2.1424   -2.0464   -0.3500 H   0  0  0  0  0  0  0  0  0  0  0  0
    4.7865    0.9819   -2.3149 H   0  0  0  0  0  0  0  0  0  0  0  0
    4.9095    1.3587   -4.4668 H   0  0  0  0  0  0  0  0  0  0  0  0
    6.0291    0.8161   -6.5168 H   0  0  0  0  0  0  0  0  0  0  0  0
    6.7467   -0.1250   -5.2017 H   0  0  0  0  0  0  0  0  0  0  0  0
    7.6113    1.2579   -5.8807 H   0  0  0  0  0  0  0  0  0  0  0  0
    5.1047    3.1780   -6.0364 H   0  0  0  0  0  0  0  0  0  0  0  0
    6.6307    3.7243   -5.3423 H   0  0  0  0  0  0  0  0  0  0  0  0
    5.1489    3.8148   -4.3863 H   0  0  0  0  0  0  0  0  0  0  0  0
 24  1  1  0
  1  2  1  0
  2  3  2  0
  3 25  1  0
  3  4  1  0
  4 26  1  0
  4  5  2  0
  5  6  1  0
  6  7  1  0
  7  8  2  0
  8  9  1  0
  8 10  1  0
 10 27  1  0
 10 11  2  0
 11 12  1  0
 12 28  1  0
 12 29  1  0
 12 13  1  0
 13 14  2  0
 13 15  1  0
 11 16  1  0
 16 30  1  0
  7 17  1  0
 16 17  2  0
 17 18  1  0
  5 19  1  0
 19 31  1  0
  2 20  1  0
 19 20  2  0
 20 21  1  0
 21 32  1  0
 21 22  1  0
 22 33  1  0
 22 34  1  0
 22 35  1  0
 21 23  1  0
 23 36  1  0
 23 37  1  0
 23 38  1  0
M  CHG  1  15  -1
M  END
>  <conformer_energy>  (1) 
76.42

>  <ligand_smiles>  (1) 
CC(C)c1cc(Oc2c(Cl)cc(CC(=O)[O-])cc2Cl)ccc1O

>  <ligand_conf_name>  (1) 
1NAV - prepared_ligand_conf_0

>  <ligand_molecule_name>  (1) 
1NAV - prepared_ligand

$$$$
