MOL_0_isomer_0_conf_0
     RDKit          3D

 46 49  0  0  0  0  0  0  0  0999 V2000
    4.6926   -4.4043   -3.5964 C   0  0  0  0  0  0  0  0  0  0  0  0
    3.7368   -5.3570   -3.2378 C   0  0  0  0  0  0  0  0  0  0  0  0
    2.9786   -5.2161   -2.0636 C   0  0  0  0  0  0  0  0  0  0  0  0
    1.9264   -6.2493   -1.6972 C   0  0  0  0  0  0  0  0  0  0  0  0
    1.8365   -7.2826   -2.4380 O   0  0  0  0  0  0  0  0  0  0  0  0
    1.1981   -6.0135   -0.6809 O   0  0  0  0  0  1  0  0  0  0  0  0
    3.2171   -4.0883   -1.2500 C   0  0  0  0  0  0  0  0  0  0  0  0
    4.1755   -3.1179   -1.5987 C   0  0  0  0  0  0  0  0  0  0  0  0
    4.3875   -1.8737   -0.7531 C   0  0  0  0  0  0  0  0  0  0  0  0
    5.7830   -1.7451   -0.4717 O   0  0  0  0  0  0  0  0  0  0  0  0
    6.1465   -0.6875    0.3640 C   0  0  0  0  0  0  0  0  0  0  0  0
    7.4741   -0.7832    0.8346 C   0  0  0  0  0  0  0  0  0  0  0  0
    8.0392    0.1784    1.6829 C   0  0  0  0  0  0  0  0  0  0  0  0
    9.4681    0.0502    2.1802 C   0  0  0  0  0  0  0  0  0  0  0  0
    9.8911    0.9436    2.9845 O   0  0  0  0  0  0  0  0  0  0  0  0
   10.1535   -0.9378    1.7628 O   0  0  0  0  0  1  0  0  0  0  0  0
    7.2466    1.2724    2.0660 C   0  0  0  0  0  0  0  0  0  0  0  0
    5.9274    1.3845    1.5837 C   0  0  0  0  0  0  0  0  0  0  0  0
    4.7854    2.6326    1.9102 S   0  0  0  0  0  0  0  0  0  0  0  0
    3.6491    1.8795    0.8723 C   0  0  0  0  0  0  0  0  0  0  0  0
    2.4182    2.4343    0.7446 N   0  0  0  0  0  2  0  0  0  0  0  0
    2.1082    2.8124   -0.5025 C   0  0  0  0  0  0  0  0  0  0  0  0
    2.3359    3.9205   -0.9827 O   0  0  0  0  0  0  0  0  0  0  0  0
    1.3147    1.8025   -1.1950 C   0  0  0  0  0  0  0  0  0  0  0  0
    0.4448    1.9151   -2.2675 C   0  0  0  0  0  0  0  0  0  0  0  0
   -0.0042    3.3379   -3.0996 Cl  0  0  0  0  0  0  0  0  0  0  0  0
   -0.0521    0.6149   -2.5636 C   0  0  0  0  0  0  0  0  0  0  0  0
   -1.1583    0.2250   -3.8017 Cl  0  0  0  0  0  0  0  0  0  0  0  0
    0.5245   -0.2731   -1.6783 C   0  0  0  0  0  0  0  0  0  0  0  0
    0.3941   -1.7442   -1.5338 C   0  0  0  0  0  0  0  0  0  0  0  0
    1.3542    0.4600   -0.8678 N   0  0  0  0  0  0  0  0  0  0  0  0
    4.0335    0.7297    0.3565 N   0  0  0  0  0  0  0  0  0  0  0  0
    5.3509    0.4341    0.7337 C   0  0  0  0  0  0  0  0  0  0  0  0
    4.9060   -3.2903   -2.7842 C   0  0  0  0  0  0  0  0  0  0  0  0
    5.2666   -4.5286   -4.5092 H   0  0  0  0  0  0  0  0  0  0  0  0
    3.5678   -6.2223   -3.8760 H   0  0  0  0  0  0  0  0  0  0  0  0
    2.6326   -3.9759   -0.3373 H   0  0  0  0  0  0  0  0  0  0  0  0
    3.8236   -1.9589    0.1825 H   0  0  0  0  0  0  0  0  0  0  0  0
    4.0341   -1.0197   -1.3428 H   0  0  0  0  0  0  0  0  0  0  0  0
    8.0799   -1.6373    0.5322 H   0  0  0  0  0  0  0  0  0  0  0  0
    7.6576    2.0331    2.7257 H   0  0  0  0  0  0  0  0  0  0  0  0
    0.8396   -2.0960   -0.5976 H   0  0  0  0  0  0  0  0  0  0  0  0
    0.8892   -2.2518   -2.3670 H   0  0  0  0  0  0  0  0  0  0  0  0
   -0.6612   -2.0391   -1.5315 H   0  0  0  0  0  0  0  0  0  0  0  0
    1.9784    0.1158   -0.1428 H   0  0  0  0  0  0  0  0  0  0  0  0
    5.6483   -2.5473   -3.0707 H   0  0  0  0  0  0  0  0  0  0  0  0
 35  1  1  0
  1  2  2  0
  2 36  1  0
  2  3  1  0
  3  4  1  0
  4  5  2  0
  4  6  1  0
  3  7  2  0
  7 37  1  0
  7  8  1  0
  8  9  1  0
  9 38  1  0
  9 39  1  0
  9 10  1  0
 10 11  1  0
 11 12  2  0
 12 40  1  0
 12 13  1  0
 13 14  1  0
 14 15  2  0
 14 16  1  0
 13 17  2  0
 17 41  1  0
 17 18  1  0
 18 19  1  0
 19 20  1  0
 20 21  1  0
 21 22  1  0
 22 23  2  0
 22 24  1  0
 24 25  2  0
 25 26  1  0
 25 27  1  0
 27 28  1  0
 27 29  2  0
 29 30  1  0
 30 42  1  0
 30 43  1  0
 30 44  1  0
 24 31  1  0
 29 31  1  0
 31 45  1  0
 20 32  2  0
 11 33  1  0
 18 33  2  0
 32 33  1  0
  1 34  1  0
  8 34  2  0
 34 46  1  0
M  CHG  3   6  -1  16  -1  21  -1
M  END
>  <conformer_energy>  (1) 
191.83

>  <ligand_smiles>  (1) 
Cc1[nH]c(C(=O)[N-]c2nc3c(OCc4cccc(C(=O)[O-])c4)cc(C(=O)[O-])cc3s2)c(Cl)c1Cl

>  <ligand_conf_name>  (1) 
MOL_0_isomer_0_conf_0

>  <ligand_molecule_name>  (1) 
MOL_0_isomer_0

$$$$
