MOL_0_isomer_0_conf_0
     RDKit          3D

 29 31  0  0  0  0  0  0  0  0999 V2000
   -4.1730    0.0269    0.1205 O   0  0  0  0  0  0  0  0  0  0  0  0
   -2.8108    0.0550    0.0634 C   0  0  0  0  0  0  0  0  0  0  0  0
   -2.1045   -0.5352    1.1033 C   0  0  0  0  0  0  0  0  0  0  0  0
   -0.7073   -0.5313    1.0812 C   0  0  0  0  0  0  0  0  0  0  0  0
   -0.0096    0.0687    0.0204 C   0  0  0  0  0  0  0  0  0  0  0  0
    1.4648    0.0839   -0.0079 C   0  0  0  0  0  0  0  0  0  0  0  0
    2.1667    0.5066    1.0546 C   0  0  0  0  0  0  0  0  0  0  0  0
    3.5333    0.5874    1.1578 O   0  0  0  0  0  0  0  0  0  0  0  0
    4.2795    0.2145    0.0678 C   0  0  0  0  0  0  0  0  0  0  0  0
    5.6698    0.3100    0.1854 C   0  0  0  0  0  0  0  0  0  0  0  0
    6.5510   -0.0377   -0.8573 C   0  0  0  0  0  0  0  0  0  0  0  0
    7.8154    0.0557   -0.7366 O   0  0  0  0  0  1  0  0  0  0  0  0
    5.9289   -0.4948   -2.0395 C   0  0  0  0  0  0  0  0  0  0  0  0
    4.5416   -0.5979   -2.1765 C   0  0  0  0  0  0  0  0  0  0  0  0
    4.0569   -1.0563   -3.3761 O   0  0  0  0  0  0  0  0  0  0  0  0
    3.7137   -0.2396   -1.1148 C   0  0  0  0  0  0  0  0  0  0  0  0
    2.2475   -0.3252   -1.2083 C   0  0  0  0  0  0  0  0  0  0  0  0
    1.7138   -0.7207   -2.2433 O   0  0  0  0  0  0  0  0  0  0  0  0
   -0.7459    0.6551   -1.0202 C   0  0  0  0  0  0  0  0  0  0  0  0
   -2.1438    0.6501   -1.0013 C   0  0  0  0  0  0  0  0  0  0  0  0
   -4.5182    0.4371   -0.6892 H   0  0  0  0  0  0  0  0  0  0  0  0
   -2.6365   -1.0039    1.9259 H   0  0  0  0  0  0  0  0  0  0  0  0
   -0.1693   -1.0130    1.8948 H   0  0  0  0  0  0  0  0  0  0  0  0
    1.7222    0.8529    1.9792 H   0  0  0  0  0  0  0  0  0  0  0  0
    6.0982    0.6690    1.1206 H   0  0  0  0  0  0  0  0  0  0  0  0
    6.5614   -0.7787   -2.8798 H   0  0  0  0  0  0  0  0  0  0  0  0
    3.0793   -1.0772   -3.3019 H   0  0  0  0  0  0  0  0  0  0  0  0
   -0.2317    1.1176   -1.8613 H   0  0  0  0  0  0  0  0  0  0  0  0
   -2.6832    1.1092   -1.8232 H   0  0  0  0  0  0  0  0  0  0  0  0
 21  1  1  0
  1  2  1  0
  2  3  2  0
  3 22  1  0
  3  4  1  0
  4 23  1  0
  4  5  2  0
  5  6  1  0
  6  7  2  0
  7 24  1  0
  7  8  1  0
  8  9  1  0
  9 10  2  0
 10 25  1  0
 10 11  1  0
 11 12  1  0
 11 13  2  0
 13 26  1  0
 13 14  1  0
 14 15  1  0
 15 27  1  0
  9 16  1  0
 14 16  2  0
  6 17  1  0
 16 17  1  0
 17 18  2  0
  5 19  1  0
 19 28  1  0
  2 20  1  0
 19 20  2  0
 20 29  1  0
M  CHG  1  12  -1
M  END
>  <conformer_energy>  (1) 
29.88

>  <ligand_smiles>  (1) 
O=c1c(-c2ccc(O)cc2)coc2cc([O-])cc(O)c12

>  <ligand_conf_name>  (1) 
MOL_0_isomer_0_conf_0

>  <ligand_molecule_name>  (1) 
MOL_0_isomer_0

$$$$
