MOL_0_isomer_0_conf_0
     RDKit          3D

 35 37  0  0  0  0  0  0  0  0999 V2000
    4.7896   -5.1956   -1.4808 C   0  0  0  0  0  0  0  0  0  0  0  0
    3.6221   -4.4686   -1.6432 C   0  0  0  0  0  0  0  0  0  0  0  0
    3.5857   -3.1192   -1.2791 C   0  0  0  0  0  0  0  0  0  0  0  0
    4.7061   -2.4499   -0.7127 C   0  0  0  0  0  0  0  0  0  0  0  0
    4.7562   -1.0819   -0.2922 C   0  0  0  0  0  0  0  0  0  0  0  0
    3.5979   -0.2578   -0.1669 N   0  0  0  0  0  0  0  0  0  0  0  0
    3.7020    1.0938   -0.2687 N   0  0  0  0  0  0  0  0  0  0  0  0
    2.4384    1.5466   -0.1583 C   0  0  0  0  0  0  0  0  0  0  0  0
    2.1148    2.9697   -0.3173 C   0  0  0  0  0  0  0  0  0  0  0  0
    0.9776    3.4203   -0.2211 O   0  0  0  0  0  0  0  0  0  0  0  0
    3.1880    3.7700   -0.5914 N   0  0  0  0  0  0  0  0  0  0  0  0
    1.5305    0.4948    0.1499 C   0  0  0  0  0  0  0  0  0  0  0  0
    0.1666    0.6352    0.3507 N   0  0  0  0  0  0  0  0  0  0  0  0
   -0.7801   -0.2481    0.7488 C   0  0  0  0  0  0  0  0  0  0  0  0
   -1.9761    0.0045    0.6334 O   0  0  0  0  0  0  0  0  0  0  0  0
   -0.3936   -1.4057    1.3167 N   0  0  0  0  0  0  0  0  0  0  0  0
    2.3112   -0.6345    0.1588 C   0  0  0  0  0  0  0  0  0  0  0  0
    5.9828   -0.4906    0.0702 C   0  0  0  0  0  0  0  0  0  0  0  0
    7.1455   -1.2483    0.1181 C   0  0  0  0  0  0  0  0  0  0  0  0
    7.0997   -2.5997   -0.2039 C   0  0  0  0  0  0  0  0  0  0  0  0
    5.9072   -3.2053   -0.6262 C   0  0  0  0  0  0  0  0  0  0  0  0
    5.9267   -4.5632   -0.9872 C   0  0  0  0  0  0  0  0  0  0  0  0
    4.8270   -6.2442   -1.7638 H   0  0  0  0  0  0  0  0  0  0  0  0
    2.7400   -4.9409   -2.0685 H   0  0  0  0  0  0  0  0  0  0  0  0
    2.6630   -2.5881   -1.4969 H   0  0  0  0  0  0  0  0  0  0  0  0
    4.1067    3.3493   -0.6691 H   0  0  0  0  0  0  0  0  0  0  0  0
    3.0555    4.7609   -0.7205 H   0  0  0  0  0  0  0  0  0  0  0  0
   -0.2184    1.5524    0.1259 H   0  0  0  0  0  0  0  0  0  0  0  0
    0.5134   -1.5042    1.7398 H   0  0  0  0  0  0  0  0  0  0  0  0
   -1.1269   -2.0411    1.5985 H   0  0  0  0  0  0  0  0  0  0  0  0
    2.0803   -1.6662    0.3650 H   0  0  0  0  0  0  0  0  0  0  0  0
    6.0364    0.5557    0.3672 H   0  0  0  0  0  0  0  0  0  0  0  0
    8.0832   -0.7910    0.4232 H   0  0  0  0  0  0  0  0  0  0  0  0
    8.0208   -3.1774   -0.1467 H   0  0  0  0  0  0  0  0  0  0  0  0
    6.8447   -5.1422   -0.9020 H   0  0  0  0  0  0  0  0  0  0  0  0
 23  1  1  0
  1  2  2  0
  2 24  1  0
  2  3  1  0
  3 25  1  0
  3  4  2  0
  4  5  1  0
  5  6  1  0
  6  7  1  0
  7  8  2  0
  8  9  1  0
  9 10  2  0
  9 11  1  0
 11 26  1  0
 11 27  1  0
  8 12  1  0
 12 13  1  0
 13 28  1  0
 13 14  1  0
 14 15  2  0
 14 16  1  0
 16 29  1  0
 16 30  1  0
  6 17  1  0
 12 17  2  0
 17 31  1  0
  5 18  2  0
 18 32  1  0
 18 19  1  0
 19 33  1  0
 19 20  2  0
 20 34  1  0
  4 21  1  0
 20 21  1  0
  1 22  1  0
 21 22  2  0
 22 35  1  0
M  END
>  <conformer_energy>  (1) 
-12.81

>  <ligand_smiles>  (1) 
NC(=O)Nc1cn(-c2cccc3ccccc23)nc1C(N)=O

>  <ligand_conf_name>  (1) 
MOL_0_isomer_0_conf_0

>  <ligand_molecule_name>  (1) 
MOL_0_isomer_0

$$$$
