MOL_0_isomer_0_conf_0
     RDKit          3D

 35 38  0  0  0  0  0  0  0  0999 V2000
   -2.8228   -0.0618   -0.2011 C   0  0  0  0  0  0  0  0  0  0  0  0
   -2.1588    1.0548    0.3067 C   0  0  0  0  0  0  0  0  0  0  0  0
   -0.7642    1.1174    0.2695 C   0  0  0  0  0  0  0  0  0  0  0  0
   -0.0315    0.0621   -0.2892 C   0  0  0  0  0  0  0  0  0  0  0  0
    1.4670    0.0975   -0.3435 C   0  0  0  0  0  0  0  0  0  0  0  0
    2.0812   -1.0173   -0.1354 N   0  0  0  0  0  0  0  0  0  0  0  0
    3.5366   -1.0642   -0.1206 C   0  0  0  0  0  0  0  0  0  0  0  0
    4.0652   -0.2577    1.0019 C   0  0  0  0  0  0  0  0  0  0  0  0
    4.8320   -0.6705    1.9877 N   0  0  0  0  0  0  0  0  0  0  0  0
    5.1319    0.4106    2.7678 N   0  0  0  0  0  0  0  0  0  0  0  0
    4.5425    1.4705    2.2522 C   0  0  0  0  0  0  0  0  0  0  0  0
    4.5186    2.8045    2.8969 C   0  0  0  0  0  0  0  0  0  0  0  0
    3.8786    1.1051    1.0912 N   0  0  0  0  0  0  0  0  0  0  0  0
    3.2207    1.9075    0.1235 C   0  0  0  0  0  0  0  0  0  0  0  0
    3.7088    3.1978   -0.1445 C   0  0  0  0  0  0  0  0  0  0  0  0
    3.1409    3.9741   -1.1581 C   0  0  0  0  0  0  0  0  0  0  0  0
    2.0944    3.4647   -1.9182 C   0  0  0  0  0  0  0  0  0  0  0  0
    1.4105    4.4156   -3.1766 Cl  0  0  0  0  0  0  0  0  0  0  0  0
    1.5963    2.1899   -1.6646 C   0  0  0  0  0  0  0  0  0  0  0  0
    2.1392    1.4074   -0.6295 C   0  0  0  0  0  0  0  0  0  0  0  0
   -0.7020   -1.0649   -0.7795 C   0  0  0  0  0  0  0  0  0  0  0  0
   -2.0958   -1.1229   -0.7397 C   0  0  0  0  0  0  0  0  0  0  0  0
   -3.9086   -0.1112   -0.1662 H   0  0  0  0  0  0  0  0  0  0  0  0
   -2.7291    1.8723    0.7412 H   0  0  0  0  0  0  0  0  0  0  0  0
   -0.2678    1.9846    0.6953 H   0  0  0  0  0  0  0  0  0  0  0  0
    3.8433   -2.1081    0.0101 H   0  0  0  0  0  0  0  0  0  0  0  0
    3.9556   -0.7406   -1.0809 H   0  0  0  0  0  0  0  0  0  0  0  0
    4.6621    2.6998    3.9777 H   0  0  0  0  0  0  0  0  0  0  0  0
    3.5628    3.3144    2.7461 H   0  0  0  0  0  0  0  0  0  0  0  0
    5.3294    3.4328    2.5176 H   0  0  0  0  0  0  0  0  0  0  0  0
    4.5736    3.6061    0.3717 H   0  0  0  0  0  0  0  0  0  0  0  0
    3.5387    4.9654   -1.3655 H   0  0  0  0  0  0  0  0  0  0  0  0
    0.7776    1.8106   -2.2736 H   0  0  0  0  0  0  0  0  0  0  0  0
   -0.1413   -1.9013   -1.1911 H   0  0  0  0  0  0  0  0  0  0  0  0
   -2.6129   -1.9995   -1.1221 H   0  0  0  0  0  0  0  0  0  0  0  0
 23  1  1  0
  1  2  2  0
  2 24  1  0
  2  3  1  0
  3 25  1  0
  3  4  2  0
  4  5  1  0
  5  6  2  0
  6  7  1  0
  7 26  1  0
  7 27  1  0
  7  8  1  0
  8  9  2  0
  9 10  1  0
 10 11  2  0
 11 12  1  0
 12 28  1  0
 12 29  1  0
 12 30  1  0
  8 13  1  0
 11 13  1  0
 13 14  1  0
 14 15  1  0
 15 31  1  0
 15 16  2  0
 16 32  1  0
 16 17  1  0
 17 18  1  0
 17 19  2  0
 19 33  1  0
 14 20  2  0
  5 20  1  0
 19 20  1  0
  4 21  1  0
 21 34  1  0
  1 22  1  0
 21 22  2  0
 22 35  1  0
M  END
>  <conformer_energy>  (1) 
92.16

>  <ligand_smiles>  (1) 
Cc1nnc2n1-c1ccc(Cl)cc1C(c1ccccc1)=NC2

>  <ligand_conf_name>  (1) 
MOL_0_isomer_0_conf_0

>  <ligand_molecule_name>  (1) 
MOL_0_isomer_0

$$$$
