MOL_0_isomer_0_conf_0
     RDKit          3D

 63 65  0  0  0  0  0  0  0  0999 V2000
   15.9116   -0.4461   -6.0563 C   0  0  0  0  0  0  0  0  0  0  0  0
   14.7792   -0.7242   -5.4030 N   0  0  0  0  0  0  0  0  0  0  0  0
   14.7563    0.1848   -4.4107 N   0  0  0  0  0  0  0  0  0  0  0  0
   13.6448    0.1957   -3.4801 C   0  0  0  0  0  0  0  0  0  0  0  0
   13.8633   -0.7650   -2.3152 C   0  0  0  0  0  0  0  0  0  0  0  0
   12.6069   -0.8580   -1.4572 C   0  0  0  0  0  0  0  0  0  0  0  0
   12.8327   -1.7316   -0.3314 N   0  0  0  0  0  0  0  0  0  0  0  0
   11.8930   -2.1576    0.5658 C   0  0  0  0  0  0  0  0  0  0  0  0
   12.3588   -2.9552    1.5270 N   0  0  0  0  0  0  0  0  0  0  0  0
   11.4508   -3.3946    2.4128 C   0  0  0  0  0  0  0  0  0  0  0  0
   12.0885   -4.4262    3.7212 S   0  0  0  0  0  6  0  0  0  0  0  0
   13.0384   -3.6435    4.4962 O   0  0  0  0  0  0  0  0  0  0  0  0
   12.4578   -5.7127    3.1506 O   0  0  0  0  0  0  0  0  0  0  0  0
   10.6924   -4.7106    4.7771 C   0  0  0  0  0  0  0  0  0  0  0  0
   10.1322   -3.1327    2.4443 N   0  0  0  0  0  0  0  0  0  0  0  0
    9.6868   -2.3328    1.4560 C   0  0  0  0  0  0  0  0  0  0  0  0
    8.2287   -2.0591    1.4632 C   0  0  0  0  0  0  0  0  0  0  0  0
    7.5235   -1.6907    0.3041 C   0  0  0  0  0  0  0  0  0  0  0  0
    6.1416   -1.4418    0.3240 C   0  0  0  0  0  0  0  0  0  0  0  0
    5.4224   -1.5634    1.5086 C   0  0  0  0  0  0  0  0  0  0  0  0
    4.0786   -1.3635    1.6620 O   0  0  0  0  0  0  0  0  0  0  0  0
    3.3487   -0.9409    0.5135 C   0  0  0  0  0  0  0  0  0  0  0  0
    1.8878   -0.8003    0.9398 C   0  0  0  0  0  0  0  0  0  0  0  0
    1.0246   -0.3042   -0.2107 C   0  0  0  0  0  0  0  0  0  0  0  0
   -0.4069   -0.0897    0.2416 N   0  0  0  0  0  4  0  0  0  0  0  0
   -1.1669   -1.3720    0.4622 C   0  0  0  0  0  0  0  0  0  0  0  0
   -1.1529    0.8173   -0.7027 C   0  0  0  0  0  0  0  0  0  0  0  0
    6.0979   -1.9323    2.6702 C   0  0  0  0  0  0  0  0  0  0  0  0
    7.4776   -2.1758    2.6470 C   0  0  0  0  0  0  0  0  0  0  0  0
   10.5551   -1.8114    0.5031 C   0  0  0  0  0  0  0  0  0  0  0  0
   15.8275    1.0309   -4.4224 C   0  0  0  0  0  0  0  0  0  0  0  0
   16.6041    0.6406   -5.4886 C   0  0  0  0  0  0  0  0  0  0  0  0
   16.1843   -1.0448   -6.9163 H   0  0  0  0  0  0  0  0  0  0  0  0
   13.5222    1.2261   -3.1218 H   0  0  0  0  0  0  0  0  0  0  0  0
   12.7428   -0.0668   -4.0494 H   0  0  0  0  0  0  0  0  0  0  0  0
   14.1305   -1.7618   -2.6871 H   0  0  0  0  0  0  0  0  0  0  0  0
   14.7143   -0.4287   -1.7084 H   0  0  0  0  0  0  0  0  0  0  0  0
   11.7855   -1.2405   -2.0714 H   0  0  0  0  0  0  0  0  0  0  0  0
   12.3266    0.1372   -1.0985 H   0  0  0  0  0  0  0  0  0  0  0  0
   13.7648   -2.0869   -0.1393 H   0  0  0  0  0  0  0  0  0  0  0  0
   11.0233   -5.3348    5.6102 H   0  0  0  0  0  0  0  0  0  0  0  0
    9.9095   -5.2301    4.2186 H   0  0  0  0  0  0  0  0  0  0  0  0
   10.3326   -3.7518    5.1596 H   0  0  0  0  0  0  0  0  0  0  0  0
    8.0323   -1.6118   -0.6549 H   0  0  0  0  0  0  0  0  0  0  0  0
    5.6699   -1.1672   -0.6134 H   0  0  0  0  0  0  0  0  0  0  0  0
    3.4276   -1.6885   -0.2869 H   0  0  0  0  0  0  0  0  0  0  0  0
    3.7270    0.0275    0.1633 H   0  0  0  0  0  0  0  0  0  0  0  0
    1.8236   -0.1094    1.7902 H   0  0  0  0  0  0  0  0  0  0  0  0
    1.5370   -1.7692    1.3115 H   0  0  0  0  0  0  0  0  0  0  0  0
    1.0083   -1.0060   -1.0540 H   0  0  0  0  0  0  0  0  0  0  0  0
    1.3955    0.6680   -0.5607 H   0  0  0  0  0  0  0  0  0  0  0  0
   -0.3787    0.4020    1.1461 H   0  0  0  0  0  0  0  0  0  0  0  0
   -1.1934   -1.9294   -0.4790 H   0  0  0  0  0  0  0  0  0  0  0  0
   -2.1768   -1.1139    0.7903 H   0  0  0  0  0  0  0  0  0  0  0  0
   -0.6651   -1.9456    1.2462 H   0  0  0  0  0  0  0  0  0  0  0  0
   -1.1855    0.3439   -1.6874 H   0  0  0  0  0  0  0  0  0  0  0  0
   -0.6240    1.7735   -0.7423 H   0  0  0  0  0  0  0  0  0  0  0  0
   -2.1594    0.9683   -0.3052 H   0  0  0  0  0  0  0  0  0  0  0  0
    5.5536   -2.0366    3.6054 H   0  0  0  0  0  0  0  0  0  0  0  0
    7.9669   -2.4635    3.5746 H   0  0  0  0  0  0  0  0  0  0  0  0
   10.2021   -1.1432   -0.2690 H   0  0  0  0  0  0  0  0  0  0  0  0
   15.9507    1.8174   -3.6900 H   0  0  0  0  0  0  0  0  0  0  0  0
   17.5399    1.0769   -5.8099 H   0  0  0  0  0  0  0  0  0  0  0  0
 33  1  1  0
  1  2  2  0
  2  3  1  0
  3  4  1  0
  4 34  1  0
  4 35  1  0
  4  5  1  0
  5 36  1  0
  5 37  1  0
  5  6  1  0
  6 38  1  0
  6 39  1  0
  6  7  1  0
  7 40  1  0
  7  8  1  0
  8  9  2  0
  9 10  1  0
 10 11  1  0
 11 12  2  0
 11 13  2  0
 11 14  1  0
 14 41  1  0
 14 42  1  0
 14 43  1  0
 10 15  2  0
 15 16  1  0
 16 17  1  0
 17 18  2  0
 18 44  1  0
 18 19  1  0
 19 45  1  0
 19 20  2  0
 20 21  1  0
 21 22  1  0
 22 46  1  0
 22 47  1  0
 22 23  1  0
 23 48  1  0
 23 49  1  0
 23 24  1  0
 24 50  1  0
 24 51  1  0
 24 25  1  0
 25 52  1  0
 25 26  1  0
 26 53  1  0
 26 54  1  0
 26 55  1  0
 25 27  1  0
 27 56  1  0
 27 57  1  0
 27 58  1  0
 20 28  1  0
 28 59  1  0
 17 29  1  0
 28 29  2  0
 29 60  1  0
  8 30  1  0
 16 30  2  0
 30 61  1  0
  3 31  1  0
 31 62  1  0
  1 32  1  0
 31 32  2  0
 32 63  1  0
M  CHG  1  25   1
M  END
>  <conformer_energy>  (1) 
73.62

>  <ligand_smiles>  (1) 
C[NH+](C)CCCOc1ccc(-c2cc(NCCCn3cccn3)nc(S(C)(=O)=O)n2)cc1

>  <ligand_conf_name>  (1) 
MOL_0_isomer_0_conf_0

>  <ligand_molecule_name>  (1) 
MOL_0_isomer_0

$$$$
