MOL_0_isomer_0_conf_0
     RDKit          3D

 41 43  0  0  0  0  0  0  0  0999 V2000
    0.9945   -2.6102    1.6572 O   0  0  0  0  0  0  0  0  0  0  0  0
    1.9606   -1.6364    1.6154 C   0  0  0  0  0  0  0  0  0  0  0  0
    2.3834   -1.0722    2.8185 C   0  0  0  0  0  0  0  0  0  0  0  0
    3.4113   -0.1190    2.9030 C   0  0  0  0  0  0  0  0  0  0  0  0
    3.7418    0.3490    4.0460 O   0  0  0  0  0  1  0  0  0  0  0  0
    4.0124    0.2309    1.6532 C   0  0  0  0  0  0  0  0  0  0  0  0
    5.3809    1.3343    1.6823 Cl  0  0  0  0  0  0  0  0  0  0  0  0
    3.5806   -0.2888    0.3958 C   0  0  0  0  0  0  0  0  0  0  0  0
    2.5310   -1.2374    0.4032 C   0  0  0  0  0  0  0  0  0  0  0  0
    2.0175   -1.8602   -0.8442 C   0  0  0  0  0  0  0  0  0  0  0  0
    2.7114   -2.3785   -1.7022 O   0  0  0  0  0  0  0  0  0  0  0  0
    0.6744   -1.6779   -0.8960 O   0  0  0  0  0  0  0  0  0  0  0  0
   -0.1178   -2.2155   -1.9806 C   0  0  2  0  0  0  0  0  0  0  0  0
    0.0825   -3.7207   -2.1518 C   0  0  0  0  0  0  0  0  0  0  0  0
    0.0936   -1.4378   -3.2837 C   0  0  0  0  0  0  0  0  0  0  0  0
   -0.3245    0.0063   -3.2564 C   0  0  1  0  0  0  0  0  0  0  0  0
   -1.7341    0.2327   -3.1309 O   0  0  0  0  0  0  0  0  0  0  0  0
   -0.9202    0.7119   -2.0473 C   0  0  2  0  0  0  0  0  0  0  0  0
   -0.5961    2.1314   -1.8485 C   0  0  0  0  0  0  0  0  0  0  0  0
    0.6065    2.6623   -1.5668 C   0  0  0  0  0  0  0  0  0  0  0  0
    1.8245    1.8892   -1.4656 C   0  0  0  0  0  0  0  0  0  0  0  0
    3.0253    2.4193   -1.2062 C   0  0  0  0  0  0  0  0  0  0  0  0
    4.2780    1.6147   -1.2244 C   0  0  0  0  0  0  0  0  0  0  0  0
    5.3026    2.1836   -1.6145 O   0  0  0  0  0  0  0  0  0  0  0  0
    4.2741    0.1283   -0.8916 C   0  0  0  0  0  0  0  0  0  0  0  0
    0.7627   -2.7397    2.5929 H   0  0  0  0  0  0  0  0  0  0  0  0
    1.9194   -1.3796    3.7557 H   0  0  0  0  0  0  0  0  0  0  0  0
   -1.1586   -2.0851   -1.6605 H   0  0  0  0  0  0  0  0  0  0  0  0
   -0.6881   -4.1397   -2.8071 H   0  0  0  0  0  0  0  0  0  0  0  0
    0.0317   -4.2288   -1.1832 H   0  0  0  0  0  0  0  0  0  0  0  0
    1.0538   -3.9594   -2.5946 H   0  0  0  0  0  0  0  0  0  0  0  0
   -0.4507   -1.9307   -4.0984 H   0  0  0  0  0  0  0  0  0  0  0  0
    1.1544   -1.4628   -3.5577 H   0  0  0  0  0  0  0  0  0  0  0  0
    0.1883    0.5870   -4.0142 H   0  0  0  0  0  0  0  0  0  0  0  0
   -1.0316    0.1804   -1.1092 H   0  0  0  0  0  0  0  0  0  0  0  0
   -1.4445    2.8097   -1.9097 H   0  0  0  0  0  0  0  0  0  0  0  0
    0.6824    3.7375   -1.4167 H   0  0  0  0  0  0  0  0  0  0  0  0
    1.7406    0.8268   -1.6574 H   0  0  0  0  0  0  0  0  0  0  0  0
    3.1742    3.4825   -1.0544 H   0  0  0  0  0  0  0  0  0  0  0  0
    3.8660   -0.3634   -1.7769 H   0  0  0  0  0  0  0  0  0  0  0  0
    5.3169   -0.2101   -0.8298 H   0  0  0  0  0  0  0  0  0  0  0  0
 26  1  1  0
  1  2  1  0
  2  3  2  0
  3 27  1  0
  3  4  1  0
  4  5  1  0
  4  6  2  0
  6  7  1  0
  6  8  1  0
  2  9  1  0
  8  9  2  0
  9 10  1  0
 10 11  2  0
 10 12  1  0
 12 13  1  0
 13 28  1  1
 13 14  1  0
 14 29  1  0
 14 30  1  0
 14 31  1  0
 13 15  1  0
 15 32  1  0
 15 33  1  0
 15 16  1  0
 16 34  1  6
 16 17  1  0
 16 18  1  0
 17 18  1  0
 18 35  1  1
 18 19  1  0
 19 36  1  0
 19 20  2  0
 20 37  1  0
 20 21  1  0
 21 38  1  0
 21 22  2  0
 22 39  1  0
 22 23  1  0
 23 24  2  0
  8 25  1  0
 23 25  1  0
 25 40  1  0
 25 41  1  0
M  CHG  1   5  -1
M  END
>  <conformer_energy>  (1) 
65.12

>  <ligand_smiles>  (1) 
C[C@@H]1C[C@H]2O[C@@H]2/C=C\C=C\C(=O)Cc2c(Cl)c([O-])cc(O)c2C(=O)O1

>  <ligand_conf_name>  (1) 
MOL_0_isomer_0_conf_0

>  <ligand_molecule_name>  (1) 
MOL_0_isomer_0

$$$$
