1SG0 - prepared_ligand4_conf_0
     RDKit          3D

 29 30  0  0  0  0  0  0  0  0999 V2000
   -4.2094   -0.0240    0.1036 O   0  0  0  0  0  0  0  0  0  0  0  0
   -2.8480   -0.0391    0.0371 C   0  0  0  0  0  0  0  0  0  0  0  0
   -2.1506   -0.5047    1.1442 C   0  0  0  0  0  0  0  0  0  0  0  0
   -0.7543   -0.5364    1.1196 C   0  0  0  0  0  0  0  0  0  0  0  0
   -0.0519   -0.1137   -0.0169 C   0  0  0  0  0  0  0  0  0  0  0  0
    1.4173   -0.1354    0.0092 C   0  0  0  0  0  0  0  0  0  0  0  0
    2.1787   -0.4735   -1.0442 C   0  0  0  0  0  0  0  0  0  0  0  0
    3.6486   -0.4987   -1.0123 C   0  0  0  0  0  0  0  0  0  0  0  0
    4.3624   -0.9746    0.0959 C   0  0  0  0  0  0  0  0  0  0  0  0
    5.7548   -1.0060    0.0717 C   0  0  0  0  0  0  0  0  0  0  0  0
    6.3986   -1.4739    1.1800 O   0  0  0  0  0  0  0  0  0  0  0  0
    6.4600   -0.5789   -1.0466 C   0  0  0  0  0  0  0  0  0  0  0  0
    5.7520   -0.1215   -2.1513 C   0  0  0  0  0  0  0  0  0  0  0  0
    6.4708    0.2863   -3.2375 O   0  0  0  0  0  0  0  0  0  0  0  0
    4.3579   -0.0827   -2.1483 C   0  0  0  0  0  0  0  0  0  0  0  0
   -0.7742    0.3670   -1.1186 C   0  0  0  0  0  0  0  0  0  0  0  0
   -2.1721    0.4004   -1.0957 C   0  0  0  0  0  0  0  0  0  0  0  0
   -4.5569    0.3222   -0.7344 H   0  0  0  0  0  0  0  0  0  0  0  0
   -2.6898   -0.8412    2.0251 H   0  0  0  0  0  0  0  0  0  0  0  0
   -0.2212   -0.9033    1.9938 H   0  0  0  0  0  0  0  0  0  0  0  0
    1.8698    0.1347    0.9608 H   0  0  0  0  0  0  0  0  0  0  0  0
    1.7257   -0.7486   -1.9934 H   0  0  0  0  0  0  0  0  0  0  0  0
    3.8454   -1.3348    0.9813 H   0  0  0  0  0  0  0  0  0  0  0  0
    7.3560   -1.4418    1.0165 H   0  0  0  0  0  0  0  0  0  0  0  0
    7.5439   -0.5983   -1.0781 H   0  0  0  0  0  0  0  0  0  0  0  0
    5.8538    0.5868   -3.9252 H   0  0  0  0  0  0  0  0  0  0  0  0
    3.8174    0.2771   -3.0189 H   0  0  0  0  0  0  0  0  0  0  0  0
   -0.2558    0.7321   -2.0016 H   0  0  0  0  0  0  0  0  0  0  0  0
   -2.7078    0.7752   -1.9617 H   0  0  0  0  0  0  0  0  0  0  0  0
 18  1  1  0
  1  2  1  0
  2  3  2  0
  3 19  1  0
  3  4  1  0
  4 20  1  0
  4  5  2  0
  5  6  1  0
  6 21  1  0
  6  7  2  0
  7 22  1  0
  7  8  1  0
  8  9  2  0
  9 23  1  0
  9 10  1  0
 10 11  1  0
 11 24  1  0
 10 12  2  0
 12 25  1  0
 12 13  1  0
 13 14  1  0
 14 26  1  0
  8 15  1  0
 13 15  2  0
 15 27  1  0
  5 16  1  0
 16 28  1  0
  2 17  1  0
 16 17  2  0
 17 29  1  0
M  END
>  <conformer_energy>  (1) 
4.94

>  <ligand_smiles>  (1) 
Oc1ccc(/C=C/c2cc(O)cc(O)c2)cc1

>  <ligand_conf_name>  (1) 
1SG0 - prepared_ligand4_conf_0

>  <ligand_molecule_name>  (1) 
1SG0 - prepared_ligand4

$$$$
