MOL_0_isomer_0_conf_0
     RDKit          3D

 27 26  0  0  0  0  0  0  0  0999 V2000
    0.8678    4.0933   -5.6249 O   0  0  0  0  0  0  0  0  0  0  0  0
    0.8068    3.4657   -4.3333 C   0  0  0  0  0  0  0  0  0  0  0  0
    1.9635    2.4808   -4.1784 C   0  0  0  0  0  0  0  0  0  0  0  0
    2.6934    2.2268   -5.1502 O   0  0  0  0  0  0  0  0  0  0  0  0
    2.1511    1.8019   -2.8255 C   0  0  1  0  0  0  0  0  0  0  0  0
    1.8412    2.7154   -1.7765 O   0  0  0  0  0  0  0  0  0  0  0  0
    1.3535    0.4808   -2.8100 C   0  0  2  0  0  0  0  0  0  0  0  0
   -0.0284    0.7624   -3.0505 O   0  0  0  0  0  0  0  0  0  0  0  0
    1.6245   -0.3063   -1.5038 C   0  0  2  0  0  0  0  0  0  0  0  0
    2.8478   -1.0717   -1.6668 O   0  0  0  0  0  0  0  0  0  0  0  0
    0.4959   -1.2629   -1.0806 C   0  0  0  0  0  0  0  0  0  0  0  0
   -0.7286   -0.6606   -0.7076 O   0  0  0  0  0  0  0  0  0  0  0  0
   -0.6666    0.6595    0.2550 P   0  0  0  0  0  5  0  0  0  0  0  0
    0.4065    0.3156    1.2713 O   0  0  0  0  0  0  0  0  0  0  0  0
   -2.0748    0.8001    0.7875 O   0  0  0  0  0  1  0  0  0  0  0  0
   -0.2528    1.7393   -0.7470 O   0  0  0  0  0  1  0  0  0  0  0  0
    1.3534    3.4511   -6.1797 H   0  0  0  0  0  0  0  0  0  0  0  0
   -0.1500    2.9479   -4.2575 H   0  0  0  0  0  0  0  0  0  0  0  0
    0.8758    4.2540   -3.5808 H   0  0  0  0  0  0  0  0  0  0  0  0
    3.2209    1.5829   -2.7286 H   0  0  0  0  0  0  0  0  0  0  0  0
    0.9960    2.4017   -1.3225 H   0  0  0  0  0  0  0  0  0  0  0  0
    1.6846   -0.1279   -3.6608 H   0  0  0  0  0  0  0  0  0  0  0  0
   -0.3698    1.1137   -2.1723 H   0  0  0  0  0  0  0  0  0  0  0  0
    1.8467    0.3951   -0.6972 H   0  0  0  0  0  0  0  0  0  0  0  0
    3.0668   -1.3258   -0.7499 H   0  0  0  0  0  0  0  0  0  0  0  0
    0.2879   -1.9599   -1.9008 H   0  0  0  0  0  0  0  0  0  0  0  0
    0.8344   -1.8905   -0.2475 H   0  0  0  0  0  0  0  0  0  0  0  0
 17  1  1  0
  1  2  1  0
  2 18  1  0
  2 19  1  0
  2  3  1  0
  3  4  2  0
  3  5  1  0
  5 20  1  1
  5  6  1  0
  6 21  1  0
  5  7  1  0
  7 22  1  6
  7  8  1  0
  8 23  1  0
  7  9  1  0
  9 24  1  1
  9 10  1  0
 10 25  1  0
  9 11  1  0
 11 26  1  0
 11 27  1  0
 11 12  1  0
 12 13  1  0
 13 14  2  0
 13 15  1  0
 13 16  1  0
M  CHG  2  15  -1  16  -1
M  END
>  <conformer_energy>  (1) 
-19.56

>  <ligand_smiles>  (1) 
O=C(CO)[C@@H](O)[C@H](O)[C@H](O)COP(=O)([O-])[O-]

>  <ligand_conf_name>  (1) 
MOL_0_isomer_0_conf_0

>  <ligand_molecule_name>  (1) 
MOL_0_isomer_0

$$$$
