MOL_0_isomer_0_conf_0
     RDKit          3D

 32 34  0  0  0  0  0  0  0  0999 V2000
    1.3194   -1.3440    3.8755 O   0  0  0  0  0  0  0  0  0  0  0  0
    2.5547   -1.6094    3.2161 C   0  0  0  0  0  0  0  0  0  0  0  0
    2.6726   -0.8380    1.9039 C   0  0  1  0  0  0  0  0  0  0  0  0
    1.7127   -1.3408    0.9545 O   0  0  0  0  0  0  0  0  0  0  0  0
    1.3497   -0.2426    0.0691 C   0  0  1  0  0  0  0  0  0  0  0  0
   -0.1379   -0.0503    0.0051 C   0  0  0  0  0  0  0  0  0  0  0  0
   -0.7293    0.3402   -1.1399 N   0  0  0  0  0  0  0  0  0  0  0  0
   -2.0368    0.3951   -0.8239 N   0  0  0  0  0  0  0  0  0  0  0  0
   -2.3119    0.0893    0.4732 C   0  0  0  0  0  0  0  0  0  0  0  0
   -3.4735    0.0372    1.2185 C   0  0  0  0  0  0  0  0  0  0  0  0
   -4.7240    0.3157    0.7351 N   0  0  0  0  0  0  0  0  0  0  0  0
   -3.3567   -0.3094    2.5118 N   0  0  0  0  0  0  0  0  0  0  0  0
   -2.1309   -0.5874    2.9972 C   0  0  0  0  0  0  0  0  0  0  0  0
   -0.9568   -0.5646    2.3432 N   0  0  0  0  0  0  0  0  0  0  0  0
   -1.0901   -0.2115    1.0453 C   0  0  0  0  0  0  0  0  0  0  0  0
    2.0865    1.0072    0.5759 C   0  0  2  0  0  0  0  0  0  0  0  0
    3.3327    1.1924   -0.1222 O   0  0  0  0  0  0  0  0  0  0  0  0
    2.3824    0.6537    2.0245 C   0  0  2  0  0  0  0  0  0  0  0  0
    3.4858    1.4088    2.5190 O   0  0  0  0  0  0  0  0  0  0  0  0
    0.6163   -1.4302    3.1951 H   0  0  0  0  0  0  0  0  0  0  0  0
    3.3617   -1.3315    3.9006 H   0  0  0  0  0  0  0  0  0  0  0  0
    2.6048   -2.6877    3.0346 H   0  0  0  0  0  0  0  0  0  0  0  0
    3.6742   -1.0134    1.4910 H   0  0  0  0  0  0  0  0  0  0  0  0
    1.7153   -0.5224   -0.9268 H   0  0  0  0  0  0  0  0  0  0  0  0
   -2.6933    0.6597   -1.5490 H   0  0  0  0  0  0  0  0  0  0  0  0
   -5.4799    0.2303    1.4021 H   0  0  0  0  0  0  0  0  0  0  0  0
   -4.9210    0.5734   -0.2149 H   0  0  0  0  0  0  0  0  0  0  0  0
   -2.0877   -0.8633    4.0472 H   0  0  0  0  0  0  0  0  0  0  0  0
    1.5242    1.9402    0.4706 H   0  0  0  0  0  0  0  0  0  0  0  0
    3.9057    1.6708    0.5128 H   0  0  0  0  0  0  0  0  0  0  0  0
    1.4991    0.8617    2.6376 H   0  0  0  0  0  0  0  0  0  0  0  0
    3.5239    1.2505    3.4809 H   0  0  0  0  0  0  0  0  0  0  0  0
 20  1  1  0
  1  2  1  0
  2 21  1  0
  2 22  1  0
  2  3  1  0
  3 23  1  6
  3  4  1  0
  4  5  1  0
  5 24  1  6
  5  6  1  0
  6  7  2  0
  7  8  1  0
  8 25  1  0
  8  9  1  0
  9 10  1  0
 10 11  1  0
 11 26  1  0
 11 27  1  0
 10 12  2  0
 12 13  1  0
 13 28  1  0
 13 14  2  0
  6 15  1  0
  9 15  2  0
 14 15  1  0
  5 16  1  0
 16 29  1  1
 16 17  1  0
 17 30  1  0
  3 18  1  0
 16 18  1  0
 18 31  1  1
 18 19  1  0
 19 32  1  0
M  END
>  <conformer_energy>  (1) 
41.65

>  <ligand_smiles>  (1) 
Nc1ncnc2c([C@@H]3O[C@H](CO)[C@@H](O)[C@H]3O)n[nH]c12

>  <ligand_conf_name>  (1) 
MOL_0_isomer_0_conf_0

>  <ligand_molecule_name>  (1) 
MOL_0_isomer_0

$$$$
