MOL_0_isomer_0_conf_0
     RDKit          3D

 53 55  0  0  0  0  0  0  0  0999 V2000
   -3.0649   -2.0139    1.5033 O   0  0  0  0  0  0  0  0  0  0  0  0
   -3.4480   -0.9119    0.6701 C   0  0  0  0  0  0  0  0  0  0  0  0
   -3.3313   -1.3355   -0.7978 C   0  0  0  0  0  0  0  0  0  0  0  0
   -4.9091   -0.5841    1.0001 C   0  0  0  0  0  0  0  0  0  0  0  0
   -2.5649    0.3103    1.0082 C   0  0  0  0  0  0  0  0  0  0  0  0
   -1.1422    0.1225    0.6758 C   0  0  0  0  0  0  0  0  0  0  0  0
    0.0244   -0.0147    0.4244 C   0  0  0  0  0  0  0  0  0  0  0  0
    1.4119   -0.1750    0.1405 C   0  0  0  0  0  0  0  0  0  0  0  0
    1.8995   -0.9733   -0.8726 C   0  0  0  0  0  0  0  0  0  0  0  0
    3.2714   -0.8847   -0.8541 N   0  0  0  0  0  0  0  0  0  0  0  0
    4.1751   -1.6086   -1.7403 C   0  0  0  0  0  0  0  0  0  0  0  0
    4.6737   -0.7317   -2.8656 C   0  0  0  0  0  0  0  0  0  0  0  0
    3.7094   -0.2805   -3.7153 N   0  0  0  0  0  0  0  0  0  0  0  0
    4.0769    0.5299   -4.7302 C   0  0  0  0  0  0  0  0  0  0  0  0
    5.3842    0.8980   -4.9959 C   0  0  0  0  0  0  0  0  0  0  0  0
    5.6971    1.8018   -6.1467 C   0  0  0  0  0  0  0  0  0  0  0  0
    6.3685    0.3508   -4.1688 C   0  0  0  0  0  0  0  0  0  0  0  0
    7.6851    0.6629   -4.4112 O   0  0  0  0  0  0  0  0  0  0  0  0
    8.2753   -0.3070   -5.2796 C   0  0  0  0  0  0  0  0  0  0  0  0
    6.0326   -0.4393   -3.0557 C   0  0  0  0  0  0  0  0  0  0  0  0
    7.0957   -0.9668   -2.1340 C   0  0  0  0  0  0  0  0  0  0  0  0
    3.6624   -0.0586    0.1702 C   0  0  0  0  0  0  0  0  0  0  0  0
    4.9314    0.2376    0.4963 N   0  0  0  0  0  0  0  0  0  0  0  0
    5.0332    1.0864    1.5264 C   0  0  0  0  0  0  0  0  0  0  0  0
    6.2935    1.4498    1.9055 N   0  0  0  0  0  0  0  0  0  0  0  0
    4.0247    1.6183    2.2211 N   0  0  0  0  0  0  0  0  0  0  0  0
    2.7790    1.2777    1.8571 C   0  0  0  0  0  0  0  0  0  0  0  0
    1.4943    1.9511    2.7390 Cl  0  0  0  0  0  0  0  0  0  0  0  0
    2.5215    0.4140    0.8052 C   0  0  0  0  0  0  0  0  0  0  0  0
   -3.5732   -2.7946    1.2240 H   0  0  0  0  0  0  0  0  0  0  0  0
   -4.0226   -2.1561   -1.0211 H   0  0  0  0  0  0  0  0  0  0  0  0
   -2.3311   -1.7171   -1.0276 H   0  0  0  0  0  0  0  0  0  0  0  0
   -3.5558   -0.5056   -1.4760 H   0  0  0  0  0  0  0  0  0  0  0  0
   -5.0208   -0.3371    2.0624 H   0  0  0  0  0  0  0  0  0  0  0  0
   -5.2782    0.2588    0.4066 H   0  0  0  0  0  0  0  0  0  0  0  0
   -5.5569   -1.4493    0.8157 H   0  0  0  0  0  0  0  0  0  0  0  0
   -2.9365    1.1963    0.4800 H   0  0  0  0  0  0  0  0  0  0  0  0
   -2.6346    0.5211    2.0829 H   0  0  0  0  0  0  0  0  0  0  0  0
    1.3883   -1.5803   -1.6096 H   0  0  0  0  0  0  0  0  0  0  0  0
    3.6224   -2.4574   -2.1630 H   0  0  0  0  0  0  0  0  0  0  0  0
    4.9724   -2.0284   -1.1198 H   0  0  0  0  0  0  0  0  0  0  0  0
    3.2512    0.8937   -5.3398 H   0  0  0  0  0  0  0  0  0  0  0  0
    4.8474    2.4547   -6.3766 H   0  0  0  0  0  0  0  0  0  0  0  0
    5.9357    1.2117   -7.0367 H   0  0  0  0  0  0  0  0  0  0  0  0
    6.5436    2.4568   -5.9145 H   0  0  0  0  0  0  0  0  0  0  0  0
    9.3288   -0.0415   -5.4071 H   0  0  0  0  0  0  0  0  0  0  0  0
    7.8018   -0.2972   -6.2663 H   0  0  0  0  0  0  0  0  0  0  0  0
    8.2291   -1.3124   -4.8481 H   0  0  0  0  0  0  0  0  0  0  0  0
    7.2040   -2.0473   -2.2704 H   0  0  0  0  0  0  0  0  0  0  0  0
    6.8519   -0.7562   -1.0898 H   0  0  0  0  0  0  0  0  0  0  0  0
    8.0721   -0.5056   -2.3119 H   0  0  0  0  0  0  0  0  0  0  0  0
    6.3806    2.1163    2.6535 H   0  0  0  0  0  0  0  0  0  0  0  0
    7.0704    1.1074    1.3696 H   0  0  0  0  0  0  0  0  0  0  0  0
 30  1  1  0
  1  2  1  0
  2  3  1  0
  3 31  1  0
  3 32  1  0
  3 33  1  0
  2  4  1  0
  4 34  1  0
  4 35  1  0
  4 36  1  0
  2  5  1  0
  5 37  1  0
  5 38  1  0
  5  6  1  0
  6  7  3  0
  7  8  1  0
  8  9  2  0
  9 39  1  0
  9 10  1  0
 10 11  1  0
 11 40  1  0
 11 41  1  0
 11 12  1  0
 12 13  2  0
 13 14  1  0
 14 42  1  0
 14 15  2  0
 15 16  1  0
 16 43  1  0
 16 44  1  0
 16 45  1  0
 15 17  1  0
 17 18  1  0
 18 19  1  0
 19 46  1  0
 19 47  1  0
 19 48  1  0
 12 20  1  0
 17 20  2  0
 20 21  1  0
 21 49  1  0
 21 50  1  0
 21 51  1  0
 10 22  1  0
 22 23  1  0
 23 24  2  0
 24 25  1  0
 25 52  1  0
 25 53  1  0
 24 26  1  0
 26 27  2  0
 27 28  1  0
  8 29  1  0
 22 29  2  0
 27 29  1  0
M  END
>  <conformer_energy>  (1) 
-24.99

>  <ligand_smiles>  (1) 
COc1c(C)cnc(Cn2cc(C#CCC(C)(C)O)c3c(Cl)nc(N)nc32)c1C

>  <ligand_conf_name>  (1) 
MOL_0_isomer_0_conf_0

>  <ligand_molecule_name>  (1) 
MOL_0_isomer_0

$$$$
