MOL_0_isomer_0_conf_0
     RDKit          3D

 54 57  0  0  0  0  0  0  0  0999 V2000
    8.2868   -4.0380   -1.9672 C   0  0  0  0  0  0  0  0  0  0  0  0
    8.6948   -2.8825   -1.4045 N   0  0  0  0  0  0  0  0  0  0  0  0
    9.9263   -2.8706   -0.8678 C   0  0  0  0  0  0  0  0  0  0  0  0
   10.4669   -1.7229   -0.2932 N   0  0  0  0  0  0  0  0  0  0  0  0
    9.9372   -0.4577    0.0138 C   0  0  0  0  0  0  0  0  0  0  0  0
    8.5512   -0.2842    0.1700 C   0  0  0  0  0  0  0  0  0  0  0  0
    8.0037    0.9698    0.4455 C   0  0  0  0  0  0  0  0  0  0  0  0
    6.5387    1.1759    0.6385 C   0  0  0  0  0  0  0  0  0  0  0  0
    6.1832    2.0673    1.4008 O   0  0  0  0  0  0  0  0  0  0  0  0
    5.7095    0.3468   -0.0991 N   0  0  0  0  0  0  0  0  0  0  0  0
    4.2972    0.3365   -0.0946 C   0  0  0  0  0  0  0  0  0  0  0  0
    3.5118    1.1856    0.6857 C   0  0  0  0  0  0  0  0  0  0  0  0
    2.1140    1.1282    0.6263 C   0  0  0  0  0  0  0  0  0  0  0  0
    1.4709    0.2129   -0.2162 C   0  0  0  0  0  0  0  0  0  0  0  0
   -0.0265    0.1375   -0.2506 C   0  0  0  0  0  0  0  0  0  0  0  0
   -0.5460   -0.6598    0.8813 N   0  0  0  0  0  4  0  0  0  0  0  0
    2.2569   -0.6493   -0.9912 C   0  0  0  0  0  0  0  0  0  0  0  0
    3.6552   -0.5825   -0.9324 C   0  0  0  0  0  0  0  0  0  0  0  0
    8.8500    2.0716    0.5877 C   0  0  0  0  0  0  0  0  0  0  0  0
   10.2339    1.9443    0.4197 C   0  0  0  0  0  0  0  0  0  0  0  0
   11.0548    3.0754    0.5461 C   0  0  0  0  0  0  0  0  0  0  0  0
   12.4340    2.9904    0.3591 C   0  0  0  0  0  0  0  0  0  0  0  0
   13.0245    1.7683    0.0332 C   0  0  0  0  0  0  0  0  0  0  0  0
   14.4750    1.6743   -0.1860 C   0  0  0  0  0  0  0  0  0  0  0  0
   15.2963    2.1115    0.7435 N   0  0  0  0  0  0  0  0  0  0  0  0
   14.9243    1.1587   -1.3095 N   0  0  0  0  0  4  0  0  0  0  0  0
   12.2033    0.6317   -0.0858 C   0  0  0  0  0  0  0  0  0  0  0  0
   10.7984    0.6808    0.1136 C   0  0  0  0  0  0  0  0  0  0  0  0
   10.7520   -3.9296   -0.8750 N   0  0  0  0  0  0  0  0  0  0  0  0
   10.2952   -5.0634   -1.4424 C   0  0  0  0  0  0  0  0  0  0  0  0
    9.0535   -5.1749   -2.0128 C   0  0  0  0  0  0  0  0  0  0  0  0
    7.2898   -4.0205   -2.3974 H   0  0  0  0  0  0  0  0  0  0  0  0
   11.3935   -1.9452    0.0348 H   0  0  0  0  0  0  0  0  0  0  0  0
    7.9034   -1.1552    0.1354 H   0  0  0  0  0  0  0  0  0  0  0  0
    6.1538   -0.2984   -0.7413 H   0  0  0  0  0  0  0  0  0  0  0  0
    3.9573    1.9211    1.3501 H   0  0  0  0  0  0  0  0  0  0  0  0
    1.5497    1.8280    1.2416 H   0  0  0  0  0  0  0  0  0  0  0  0
   -0.3873   -0.3380   -1.1685 H   0  0  0  0  0  0  0  0  0  0  0  0
   -0.4772    1.1329   -0.1796 H   0  0  0  0  0  0  0  0  0  0  0  0
   -0.2634   -0.2448    1.7777 H   0  0  0  0  0  0  0  0  0  0  0  0
   -0.1676   -1.6142    0.8575 H   0  0  0  0  0  0  0  0  0  0  0  0
   -1.5707   -0.7182    0.8656 H   0  0  0  0  0  0  0  0  0  0  0  0
    1.8026   -1.3745   -1.6651 H   0  0  0  0  0  0  0  0  0  0  0  0
    4.2364   -1.2575   -1.5580 H   0  0  0  0  0  0  0  0  0  0  0  0
    8.4136    3.0425    0.8251 H   0  0  0  0  0  0  0  0  0  0  0  0
   10.6170    4.0456    0.7849 H   0  0  0  0  0  0  0  0  0  0  0  0
   13.0288    3.8982    0.4481 H   0  0  0  0  0  0  0  0  0  0  0  0
   14.9279    2.4837    1.6138 H   0  0  0  0  0  0  0  0  0  0  0  0
   16.3022    2.0772    0.6448 H   0  0  0  0  0  0  0  0  0  0  0  0
   14.2727    0.8540   -2.0264 H   0  0  0  0  0  0  0  0  0  0  0  0
   15.9110    1.0748   -1.5150 H   0  0  0  0  0  0  0  0  0  0  0  0
   12.6731   -0.3171   -0.3380 H   0  0  0  0  0  0  0  0  0  0  0  0
   10.9830   -5.9045   -1.4247 H   0  0  0  0  0  0  0  0  0  0  0  0
    8.7063   -6.0923   -2.4676 H   0  0  0  0  0  0  0  0  0  0  0  0
 32  1  1  0
  1  2  2  0
  2  3  1  0
  3  4  1  0
  4 33  1  0
  4  5  1  0
  5  6  2  0
  6 34  1  0
  6  7  1  0
  7  8  1  0
  8  9  2  0
  8 10  1  0
 10 35  1  0
 10 11  1  0
 11 12  2  0
 12 36  1  0
 12 13  1  0
 13 37  1  0
 13 14  2  0
 14 15  1  0
 15 38  1  0
 15 39  1  0
 15 16  1  0
 16 40  1  0
 16 41  1  0
 16 42  1  0
 14 17  1  0
 17 43  1  0
 11 18  1  0
 17 18  2  0
 18 44  1  0
  7 19  2  0
 19 45  1  0
 19 20  1  0
 20 21  1  0
 21 46  1  0
 21 22  2  0
 22 47  1  0
 22 23  1  0
 23 24  1  0
 24 25  1  0
 25 48  1  0
 25 49  1  0
 24 26  2  0
 26 50  1  0
 26 51  1  0
 23 27  2  0
 27 52  1  0
  5 28  1  0
 20 28  2  0
 27 28  1  0
  3 29  2  0
 29 30  1  0
 30 53  1  0
  1 31  1  0
 30 31  2  0
 31 54  1  0
M  CHG  2  16   1  26   1
M  END
>  <conformer_energy>  (1) 
-21.67

>  <ligand_smiles>  (1) 
NC(=[NH2+])c1ccc2cc(C(=O)Nc3ccc(C[NH3+])cc3)cc(Nc3ncccn3)c2c1

>  <ligand_conf_name>  (1) 
MOL_0_isomer_0_conf_0

>  <ligand_molecule_name>  (1) 
MOL_0_isomer_0

$$$$
