MOL_0_isomer_0_conf_0
     RDKit          3D

 38 41  0  0  0  0  0  0  0  0999 V2000
    7.1860   -0.7117    2.7314 C   0  0  0  0  0  0  0  0  0  0  0  0
    7.1822   -0.0929    1.4835 C   0  0  0  0  0  0  0  0  0  0  0  0
    5.9977   -0.0069    0.7488 C   0  0  0  0  0  0  0  0  0  0  0  0
    4.8051   -0.5421    1.2610 C   0  0  0  0  0  0  0  0  0  0  0  0
    3.6097   -0.4432    0.4943 N   0  0  0  0  0  0  0  0  0  0  0  0
    3.6112    0.1473   -0.7231 N   0  0  0  0  0  0  0  0  0  0  0  0
    2.3446    0.1058   -1.1522 C   0  0  0  0  0  0  0  0  0  0  0  0
    1.9883    0.6888   -2.4422 C   0  0  0  0  0  0  0  0  0  0  0  0
    2.6860    0.3044   -3.5975 C   0  0  0  0  0  0  0  0  0  0  0  0
    2.3468    0.8467   -4.8387 C   0  0  0  0  0  0  0  0  0  0  0  0
    1.3176    1.7771   -4.9206 C   0  0  0  0  0  0  0  0  0  0  0  0
    0.9919    2.2973   -6.1109 F   0  0  0  0  0  0  0  0  0  0  0  0
    0.6250    2.1807   -3.7846 C   0  0  0  0  0  0  0  0  0  0  0  0
    0.9623    1.6395   -2.5417 C   0  0  0  0  0  0  0  0  0  0  0  0
    1.5058   -0.5816   -0.2290 C   0  0  0  0  0  0  0  0  0  0  0  0
    0.0596   -0.8908   -0.3788 C   0  0  2  0  0  0  0  0  0  0  0  0
   -0.8432    0.0080    0.4724 C   0  0  0  0  0  0  0  0  0  0  0  0
   -0.9678    1.2203    0.3777 O   0  0  0  0  0  0  0  0  0  0  0  0
   -1.5033   -0.7729    1.3726 N   0  0  0  0  0  0  0  0  0  0  0  0
   -1.1529   -2.0715    1.2294 C   0  0  0  0  0  0  0  0  0  0  0  0
   -1.5666   -3.0055    1.8912 O   0  0  0  0  0  0  0  0  0  0  0  0
   -0.2416   -2.1714    0.2089 N   0  0  0  0  0  0  0  0  0  0  0  0
    2.3539   -0.9040    0.8162 C   0  0  0  0  0  0  0  0  0  0  0  0
    4.8159   -1.1625    2.5183 C   0  0  0  0  0  0  0  0  0  0  0  0
    6.0061   -1.2448    3.2477 C   0  0  0  0  0  0  0  0  0  0  0  0
    8.1088   -0.7772    3.3024 H   0  0  0  0  0  0  0  0  0  0  0  0
    8.1009    0.3252    1.0795 H   0  0  0  0  0  0  0  0  0  0  0  0
    6.0199    0.4835   -0.2231 H   0  0  0  0  0  0  0  0  0  0  0  0
    3.4999   -0.4150   -3.5299 H   0  0  0  0  0  0  0  0  0  0  0  0
    2.8822    0.5547   -5.7364 H   0  0  0  0  0  0  0  0  0  0  0  0
   -0.1641    2.9212   -3.8703 H   0  0  0  0  0  0  0  0  0  0  0  0
    0.4356    1.9875   -1.6558 H   0  0  0  0  0  0  0  0  0  0  0  0
   -0.2858   -0.9026   -1.4158 H   0  0  0  0  0  0  0  0  0  0  0  0
   -2.1587   -0.4361    2.0565 H   0  0  0  0  0  0  0  0  0  0  0  0
    0.1553   -3.0580   -0.0701 H   0  0  0  0  0  0  0  0  0  0  0  0
    2.1557   -1.4252    1.7405 H   0  0  0  0  0  0  0  0  0  0  0  0
    3.9229   -1.5907    2.9620 H   0  0  0  0  0  0  0  0  0  0  0  0
    6.0126   -1.7260    4.2229 H   0  0  0  0  0  0  0  0  0  0  0  0
 26  1  1  0
  1  2  2  0
  2 27  1  0
  2  3  1  0
  3 28  1  0
  3  4  2  0
  4  5  1  0
  5  6  1  0
  6  7  2  0
  7  8  1  0
  8  9  2  0
  9 29  1  0
  9 10  1  0
 10 30  1  0
 10 11  2  0
 11 12  1  0
 11 13  1  0
 13 31  1  0
  8 14  1  0
 13 14  2  0
 14 32  1  0
  7 15  1  0
 15 16  1  0
 16 33  1  6
 16 17  1  0
 17 18  2  0
 17 19  1  0
 19 34  1  0
 19 20  1  0
 20 21  2  0
 16 22  1  0
 20 22  1  0
 22 35  1  0
  5 23  1  0
 15 23  2  0
 23 36  1  0
  4 24  1  0
 24 37  1  0
  1 25  1  0
 24 25  2  0
 25 38  1  0
M  END
>  <conformer_energy>  (1) 
-13.41

>  <ligand_smiles>  (1) 
O=C1NC(=O)[C@@H](c2cn(-c3ccccc3)nc2-c2ccc(F)cc2)N1

>  <ligand_conf_name>  (1) 
MOL_0_isomer_0_conf_0

>  <ligand_molecule_name>  (1) 
MOL_0_isomer_0

$$$$
