MOL_0_isomer_0_conf_0
     RDKit          3D

 49 48  0  0  0  0  0  0  0  0999 V2000
   -0.2262    7.4961   11.9613 C   0  0  0  0  0  0  0  0  0  0  0  0
   -0.0236    6.3129   11.0283 C   0  0  0  0  0  0  0  0  0  0  0  0
    1.4365    6.1852   10.5947 C   0  0  0  0  0  0  0  0  0  0  0  0
    1.6361    4.9938    9.6564 C   0  0  0  0  0  0  0  0  0  0  0  0
    3.0973    4.8660    9.2224 C   0  0  0  0  0  0  0  0  0  0  0  0
    3.2970    3.6737    8.2838 C   0  0  0  0  0  0  0  0  0  0  0  0
    4.7587    3.5509    7.8481 C   0  0  0  0  0  0  0  0  0  0  0  0
    5.0388    2.3075    6.9992 C   0  0  0  0  0  0  0  0  0  0  0  0
    4.3395    2.3296    5.6382 C   0  0  0  0  0  0  0  0  0  0  0  0
    4.7448    1.1233    4.7878 C   0  0  0  0  0  0  0  0  0  0  0  0
    4.0439    1.1406    3.4273 C   0  0  0  0  0  0  0  0  0  0  0  0
    4.4479   -0.0686    2.5810 C   0  0  0  0  0  0  0  0  0  0  0  0
    3.8653   -0.0430    1.1649 C   0  0  0  0  0  0  0  0  0  0  0  0
    2.3407   -0.1717    1.1315 C   0  0  0  0  0  0  0  0  0  0  0  0
    1.8231   -0.2582   -0.3017 C   0  0  0  0  0  0  0  0  0  0  0  0
    0.3024   -0.3838   -0.4411 C   0  0  0  0  0  0  0  0  0  0  0  0
   -0.3637   -0.4166    0.6295 O   0  0  0  0  0  0  0  0  0  0  0  0
   -0.1021   -0.4407   -1.6386 O   0  0  0  0  0  1  0  0  0  0  0  0
    0.0537    8.4343   11.4716 H   0  0  0  0  0  0  0  0  0  0  0  0
    0.3770    7.3883   12.8684 H   0  0  0  0  0  0  0  0  0  0  0  0
   -1.2770    7.5686   12.2588 H   0  0  0  0  0  0  0  0  0  0  0  0
   -0.6644    6.4357   10.1474 H   0  0  0  0  0  0  0  0  0  0  0  0
   -0.3428    5.3955   11.5365 H   0  0  0  0  0  0  0  0  0  0  0  0
    2.0736    6.0667   11.4797 H   0  0  0  0  0  0  0  0  0  0  0  0
    1.7520    7.1068   10.0907 H   0  0  0  0  0  0  0  0  0  0  0  0
    1.3208    4.0722   10.1607 H   0  0  0  0  0  0  0  0  0  0  0  0
    0.9990    5.1126    8.7716 H   0  0  0  0  0  0  0  0  0  0  0  0
    3.4127    5.7873    8.7175 H   0  0  0  0  0  0  0  0  0  0  0  0
    3.7339    4.7479   10.1076 H   0  0  0  0  0  0  0  0  0  0  0  0
    2.6523    3.7976    7.4066 H   0  0  0  0  0  0  0  0  0  0  0  0
    2.9853    2.7521    8.7901 H   0  0  0  0  0  0  0  0  0  0  0  0
    5.3953    3.5049    8.7404 H   0  0  0  0  0  0  0  0  0  0  0  0
    5.0570    4.4493    7.2940 H   0  0  0  0  0  0  0  0  0  0  0  0
    4.7420    1.4090    7.5539 H   0  0  0  0  0  0  0  0  0  0  0  0
    6.1226    2.2382    6.8434 H   0  0  0  0  0  0  0  0  0  0  0  0
    3.2524    2.3220    5.7741 H   0  0  0  0  0  0  0  0  0  0  0  0
    4.5955    3.2547    5.1079 H   0  0  0  0  0  0  0  0  0  0  0  0
    5.8317    1.1260    4.6410 H   0  0  0  0  0  0  0  0  0  0  0  0
    4.4920    0.1977    5.3194 H   0  0  0  0  0  0  0  0  0  0  0  0
    2.9595    1.1443    3.5840 H   0  0  0  0  0  0  0  0  0  0  0  0
    4.2996    2.0645    2.8948 H   0  0  0  0  0  0  0  0  0  0  0  0
    4.1443   -0.9932    3.0869 H   0  0  0  0  0  0  0  0  0  0  0  0
    5.5416   -0.0985    2.4990 H   0  0  0  0  0  0  0  0  0  0  0  0
    4.1706    0.8807    0.6584 H   0  0  0  0  0  0  0  0  0  0  0  0
    4.3069   -0.8733    0.5998 H   0  0  0  0  0  0  0  0  0  0  0  0
    1.8801    0.6896    1.6284 H   0  0  0  0  0  0  0  0  0  0  0  0
    2.0351   -1.0656    1.6887 H   0  0  0  0  0  0  0  0  0  0  0  0
    2.1341    0.6359   -0.8564 H   0  0  0  0  0  0  0  0  0  0  0  0
    2.2731   -1.1250   -0.8015 H   0  0  0  0  0  0  0  0  0  0  0  0
 19  1  1  0
  1 20  1  0
  1 21  1  0
  1  2  1  0
  2 22  1  0
  2 23  1  0
  2  3  1  0
  3 24  1  0
  3 25  1  0
  3  4  1  0
  4 26  1  0
  4 27  1  0
  4  5  1  0
  5 28  1  0
  5 29  1  0
  5  6  1  0
  6 30  1  0
  6 31  1  0
  6  7  1  0
  7 32  1  0
  7 33  1  0
  7  8  1  0
  8 34  1  0
  8 35  1  0
  8  9  1  0
  9 36  1  0
  9 37  1  0
  9 10  1  0
 10 38  1  0
 10 39  1  0
 10 11  1  0
 11 40  1  0
 11 41  1  0
 11 12  1  0
 12 42  1  0
 12 43  1  0
 12 13  1  0
 13 44  1  0
 13 45  1  0
 13 14  1  0
 14 46  1  0
 14 47  1  0
 14 15  1  0
 15 48  1  0
 15 49  1  0
 15 16  1  0
 16 17  2  0
 16 18  1  0
M  CHG  1  18  -1
M  END
>  <conformer_energy>  (1) 
0.92

>  <ligand_smiles>  (1) 
CCCCCCCCCCCCCCCC(=O)[O-]

>  <ligand_conf_name>  (1) 
MOL_0_isomer_0_conf_0

>  <ligand_molecule_name>  (1) 
MOL_0_isomer_0

$$$$
