MOL_0_isomer_0_conf_0
     RDKit          3D

 33 33  0  0  0  0  0  0  0  0999 V2000
    1.9909   -1.8973   -3.6606 O   0  0  0  0  0  0  0  0  0  0  0  0
    1.3609   -0.9506   -2.7853 C   0  0  0  0  0  0  0  0  0  0  0  0
    1.8814   -1.1588   -1.3509 C   0  0  1  0  0  0  0  0  0  0  0  0
    3.3253   -1.1841   -1.3334 O   0  0  0  0  0  0  0  0  0  0  0  0
    3.9138    0.1006   -1.5192 C   0  0  2  0  0  0  0  0  0  0  0  0
    5.3290   -0.0734   -1.5428 O   0  0  0  0  0  0  0  0  0  0  0  0
    3.5129    1.0598   -0.3806 C   0  0  2  0  0  0  0  0  0  0  0  0
    4.0809    0.5896    0.8985 N   0  0  0  0  0  0  0  0  0  0  0  0
    4.5262    1.3376    1.9470 C   0  0  0  0  0  0  0  0  0  0  0  0
    5.0066    0.7770    2.9298 O   0  0  0  0  0  0  0  0  0  0  0  0
    4.4549    2.8354    1.8369 C   0  0  0  0  0  0  0  0  0  0  0  0
    1.9834    1.1834   -0.3274 C   0  0  1  0  0  0  0  0  0  0  0  0
    1.5497    1.9434   -1.4642 O   0  0  0  0  0  0  0  0  0  0  0  0
    1.2981   -0.2015   -0.2950 C   0  0  1  0  0  0  0  0  0  0  0  0
   -0.1129   -0.1643   -0.4654 O   0  0  0  0  0  0  0  0  0  0  0  0
   -1.0078    0.8530    0.4330 S   0  0  0  0  0  6  0  0  0  0  0  0
   -2.3503    0.3008    0.3385 O   0  0  0  0  0  0  0  0  0  0  0  0
   -0.3914    0.7809    1.7520 O   0  0  0  0  0  0  0  0  0  0  0  0
   -0.8063    2.1240   -0.2616 O   0  0  0  0  0  1  0  0  0  0  0  0
    2.9114   -1.9809   -3.3440 H   0  0  0  0  0  0  0  0  0  0  0  0
    1.5878    0.0432   -3.1764 H   0  0  0  0  0  0  0  0  0  0  0  0
    0.2798   -1.1048   -2.8473 H   0  0  0  0  0  0  0  0  0  0  0  0
    1.5820   -2.1779   -1.0725 H   0  0  0  0  0  0  0  0  0  0  0  0
    3.6351    0.5048   -2.4967 H   0  0  0  0  0  0  0  0  0  0  0  0
    5.6008   -0.0932   -0.6085 H   0  0  0  0  0  0  0  0  0  0  0  0
    3.9581    2.0372   -0.5987 H   0  0  0  0  0  0  0  0  0  0  0  0
    4.0829   -0.4108    1.0771 H   0  0  0  0  0  0  0  0  0  0  0  0
    3.4461    3.1539    1.5642 H   0  0  0  0  0  0  0  0  0  0  0  0
    5.1712    3.1855    1.0890 H   0  0  0  0  0  0  0  0  0  0  0  0
    4.7063    3.2831    2.8028 H   0  0  0  0  0  0  0  0  0  0  0  0
    1.7120    1.7667    0.5588 H   0  0  0  0  0  0  0  0  0  0  0  0
    0.6144    2.2042   -1.2480 H   0  0  0  0  0  0  0  0  0  0  0  0
    1.5129   -0.6492    0.6847 H   0  0  0  0  0  0  0  0  0  0  0  0
 20  1  1  0
  1  2  1  0
  2 21  1  0
  2 22  1  0
  2  3  1  0
  3 23  1  1
  3  4  1  0
  4  5  1  0
  5 24  1  6
  5  6  1  0
  6 25  1  0
  5  7  1  0
  7 26  1  6
  7  8  1  0
  8 27  1  0
  8  9  1  0
  9 10  2  0
  9 11  1  0
 11 28  1  0
 11 29  1  0
 11 30  1  0
  7 12  1  0
 12 31  1  1
 12 13  1  0
 13 32  1  0
  3 14  1  0
 12 14  1  0
 14 33  1  1
 14 15  1  0
 15 16  1  0
 16 17  2  0
 16 18  2  0
 16 19  1  0
M  CHG  1  19  -1
M  END
>  <conformer_energy>  (1) 
-26.70

>  <ligand_smiles>  (1) 
CC(=O)N[C@@H]1[C@@H](O)[C@@H](OS(=O)(=O)[O-])[C@@H](CO)O[C@@H]1O

>  <ligand_conf_name>  (1) 
MOL_0_isomer_0_conf_0

>  <ligand_molecule_name>  (1) 
MOL_0_isomer_0

$$$$
