MOL_0_isomer_0_conf_0
     RDKit          3D

 31 33  0  0  0  0  0  0  0  0999 V2000
    1.4555    0.3918    5.1848 C   0  0  0  0  0  0  0  0  0  0  0  0
    1.4765    1.5246    4.3760 C   0  0  0  0  0  0  0  0  0  0  0  0
    1.7732    1.4058    3.0162 C   0  0  0  0  0  0  0  0  0  0  0  0
    2.0469    0.1531    2.4440 C   0  0  0  0  0  0  0  0  0  0  0  0
    2.3908    0.0949    1.0316 C   0  0  0  0  0  0  0  0  0  0  0  0
    1.5254    0.3600   -0.0095 C   0  0  0  0  0  0  0  0  0  0  0  0
    0.0163    0.7502   -0.0489 C   0  0  0  0  0  0  0  0  0  0  0  0
   -0.6103    0.8716    1.0408 O   0  0  0  0  0  0  0  0  0  0  0  0
   -0.4349    0.9217   -1.2241 O   0  0  0  0  0  1  0  0  0  0  0  0
    2.2175    0.2177   -1.1819 N   0  0  0  0  0  0  0  0  0  0  0  0
    3.5325   -0.1065   -0.9478 C   0  0  0  0  0  0  0  0  0  0  0  0
    4.5939   -0.3288   -1.8458 C   0  0  0  0  0  0  0  0  0  0  0  0
    4.4626   -0.2495   -3.3377 C   0  0  0  0  0  0  0  0  0  0  0  0
    5.8416   -0.6395   -1.2730 C   0  0  0  0  0  0  0  0  0  0  0  0
    6.0163   -0.7222    0.1065 C   0  0  0  0  0  0  0  0  0  0  0  0
    4.9426   -0.4971    0.9711 C   0  0  0  0  0  0  0  0  0  0  0  0
    3.6722   -0.1871    0.4412 C   0  0  0  0  0  0  0  0  0  0  0  0
    2.0201   -0.9837    3.2659 C   0  0  0  0  0  0  0  0  0  0  0  0
    2.3437   -2.5795    2.6732 Cl  0  0  0  0  0  0  0  0  0  0  0  0
    1.7257   -0.8600    4.6307 C   0  0  0  0  0  0  0  0  0  0  0  0
    1.2095    0.4804    6.2385 H   0  0  0  0  0  0  0  0  0  0  0  0
    1.2392    2.5008    4.7885 H   0  0  0  0  0  0  0  0  0  0  0  0
    1.7553    2.2914    2.3840 H   0  0  0  0  0  0  0  0  0  0  0  0
    1.7692    0.3591   -2.0779 H   0  0  0  0  0  0  0  0  0  0  0  0
    5.1192    0.5335   -3.7306 H   0  0  0  0  0  0  0  0  0  0  0  0
    3.4394   -0.0169   -3.6463 H   0  0  0  0  0  0  0  0  0  0  0  0
    4.7402   -1.2069   -3.7903 H   0  0  0  0  0  0  0  0  0  0  0  0
    6.6959   -0.8211   -1.9216 H   0  0  0  0  0  0  0  0  0  0  0  0
    6.9920   -0.9650    0.5167 H   0  0  0  0  0  0  0  0  0  0  0  0
    5.0795   -0.5635    2.0456 H   0  0  0  0  0  0  0  0  0  0  0  0
    1.6933   -1.7425    5.2626 H   0  0  0  0  0  0  0  0  0  0  0  0
 21  1  1  0
  1  2  2  0
  2 22  1  0
  2  3  1  0
  3 23  1  0
  3  4  2  0
  4  5  1  0
  5  6  2  0
  6  7  1  0
  7  8  2  0
  7  9  1  0
  6 10  1  0
 10 24  1  0
 10 11  1  0
 11 12  1  0
 12 13  1  0
 13 25  1  0
 13 26  1  0
 13 27  1  0
 12 14  2  0
 14 28  1  0
 14 15  1  0
 15 29  1  0
 15 16  2  0
 16 30  1  0
  5 17  1  0
 11 17  2  0
 16 17  1  0
  4 18  1  0
 18 19  1  0
  1 20  1  0
 18 20  2  0
 20 31  1  0
M  CHG  1   9  -1
M  END
>  <conformer_energy>  (1) 
35.82

>  <ligand_smiles>  (1) 
Cc1cccc2c(-c3ccccc3Cl)c(C(=O)[O-])[nH]c12

>  <ligand_conf_name>  (1) 
MOL_0_isomer_0_conf_0

>  <ligand_molecule_name>  (1) 
MOL_0_isomer_0

$$$$
