MOL_0_isomer_0_conf_0
     RDKit          3D

 43 46  0  0  0  0  0  0  0  0999 V2000
    6.5368   -3.2345    2.5723 O   0  0  0  0  0  0  0  0  0  0  0  0
    7.3907   -2.1593    2.6641 C   0  0  0  0  0  0  0  0  0  0  0  0
    8.6566   -2.3722    3.2480 C   0  0  0  0  0  0  0  0  0  0  0  0
    9.0775   -3.6788    3.7894 C   0  0  0  0  0  0  0  0  0  0  0  0
   10.2225   -4.3288    3.2976 C   0  0  0  0  0  0  0  0  0  0  0  0
   10.6353   -5.5569    3.8218 C   0  0  0  0  0  0  0  0  0  0  0  0
    9.9102   -6.1555    4.8489 C   0  0  0  0  0  0  0  0  0  0  0  0
    8.7725   -5.5286    5.3506 C   0  0  0  0  0  0  0  0  0  0  0  0
    8.3610   -4.3008    4.8250 C   0  0  0  0  0  0  0  0  0  0  0  0
    9.5446   -1.2829    3.3029 C   0  0  0  0  0  0  0  0  0  0  0  0
    9.1892   -0.0309    2.7997 C   0  0  0  0  0  0  0  0  0  0  0  0
    7.9313    0.1603    2.2316 C   0  0  0  0  0  0  0  0  0  0  0  0
    7.0152   -0.8973    2.1581 C   0  0  0  0  0  0  0  0  0  0  0  0
    5.6947   -0.6491    1.5771 C   0  0  0  0  0  0  0  0  0  0  0  0
    4.4316   -0.8160    2.1147 C   0  0  0  0  0  0  0  0  0  0  0  0
    3.4766   -0.4353    1.1350 C   0  0  0  0  0  0  0  0  0  0  0  0
    2.0693   -0.3929    1.1059 C   0  0  0  0  0  0  0  0  0  0  0  0
    1.4071    0.0429   -0.0571 C   0  0  0  0  0  0  0  0  0  0  0  0
   -0.0598    0.0916   -0.0916 C   0  0  0  0  0  0  0  0  0  0  0  0
   -0.7018   -0.5333   -1.0544 N   0  0  0  0  0  0  0  0  0  0  0  0
   -0.7022    0.7614    0.8404 N   0  0  0  0  0  4  0  0  0  0  0  0
    2.1583    0.4300   -1.1765 C   0  0  0  0  0  0  0  0  0  0  0  0
    3.5576    0.3973   -1.1668 C   0  0  0  0  0  0  0  0  0  0  0  0
    4.1849   -0.0389    0.0039 C   0  0  0  0  0  0  0  0  0  0  0  0
    5.5244   -0.1676    0.2992 N   0  0  0  0  0  0  0  0  0  0  0  0
    5.8332   -3.0154    1.9416 H   0  0  0  0  0  0  0  0  0  0  0  0
   10.7997   -3.8821    2.4910 H   0  0  0  0  0  0  0  0  0  0  0  0
   11.5223   -6.0451    3.4265 H   0  0  0  0  0  0  0  0  0  0  0  0
   10.2308   -7.1103    5.2572 H   0  0  0  0  0  0  0  0  0  0  0  0
    8.2036   -5.9931    6.1515 H   0  0  0  0  0  0  0  0  0  0  0  0
    7.4702   -3.8251    5.2292 H   0  0  0  0  0  0  0  0  0  0  0  0
   10.5271   -1.4071    3.7569 H   0  0  0  0  0  0  0  0  0  0  0  0
    9.8920    0.7965    2.8642 H   0  0  0  0  0  0  0  0  0  0  0  0
    7.6663    1.1510    1.8693 H   0  0  0  0  0  0  0  0  0  0  0  0
    4.2262   -1.1720    3.1177 H   0  0  0  0  0  0  0  0  0  0  0  0
    1.5147   -0.7149    1.9839 H   0  0  0  0  0  0  0  0  0  0  0  0
   -0.1803   -1.0679   -1.7426 H   0  0  0  0  0  0  0  0  0  0  0  0
   -1.7097   -0.5349   -1.1275 H   0  0  0  0  0  0  0  0  0  0  0  0
   -0.1781    1.2523    1.5589 H   0  0  0  0  0  0  0  0  0  0  0  0
   -1.7099    0.8311    0.8681 H   0  0  0  0  0  0  0  0  0  0  0  0
    1.6629    0.7859   -2.0793 H   0  0  0  0  0  0  0  0  0  0  0  0
    4.1325    0.7067   -2.0358 H   0  0  0  0  0  0  0  0  0  0  0  0
    6.2812    0.0444   -0.3380 H   0  0  0  0  0  0  0  0  0  0  0  0
 26  1  1  0
  1  2  1  0
  2  3  2  0
  3  4  1  0
  4  5  2  0
  5 27  1  0
  5  6  1  0
  6 28  1  0
  6  7  2  0
  7 29  1  0
  7  8  1  0
  8 30  1  0
  4  9  1  0
  8  9  2  0
  9 31  1  0
  3 10  1  0
 10 32  1  0
 10 11  2  0
 11 33  1  0
 11 12  1  0
 12 34  1  0
  2 13  1  0
 12 13  2  0
 13 14  1  0
 14 15  2  0
 15 35  1  0
 15 16  1  0
 16 17  2  0
 17 36  1  0
 17 18  1  0
 18 19  1  0
 19 20  1  0
 20 37  1  0
 20 38  1  0
 19 21  2  0
 21 39  1  0
 21 40  1  0
 18 22  2  0
 22 41  1  0
 22 23  1  0
 23 42  1  0
 16 24  1  0
 23 24  2  0
 14 25  1  0
 24 25  1  0
 25 43  1  0
M  CHG  1  21   1
M  END
>  <conformer_energy>  (1) 
40.32

>  <ligand_smiles>  (1) 
NC(=[NH2+])c1ccc2[nH]c(-c3cccc(-c4ccccc4)c3O)cc2c1

>  <ligand_conf_name>  (1) 
MOL_0_isomer_0_conf_0

>  <ligand_molecule_name>  (1) 
MOL_0_isomer_0

$$$$
