MOL_0_isomer_0_conf_0
     RDKit          3D

 36 38  0  0  0  0  0  0  0  0999 V2000
    4.3897   -0.1134   -0.0278 C   0  0  0  0  0  0  0  0  0  0  0  0
    3.7307   -1.2294    0.5126 C   0  0  0  0  0  0  0  0  0  0  0  0
    4.5137   -2.3918    0.9653 C   0  0  0  0  0  0  0  0  0  0  0  0
    5.7358   -2.4139    0.8916 O   0  0  0  0  0  0  0  0  0  0  0  0
    3.7876   -3.4321    1.4809 N   0  0  0  0  0  0  0  0  0  0  0  0
    2.4318   -3.4208    1.6058 C   0  0  0  0  0  0  0  0  0  0  0  0
    1.8638   -4.5166    2.1462 N   0  0  0  0  0  0  0  0  0  0  0  0
    1.7048   -2.4155    1.2327 N   0  0  0  0  0  0  0  0  0  0  0  0
    2.3355   -1.2987    0.6523 C   0  0  0  0  0  0  0  0  0  0  0  0
    1.5318   -0.2209    0.2201 C   0  0  0  0  0  0  0  0  0  0  0  0
    0.0248   -0.2702    0.2910 C   0  0  0  0  0  0  0  0  0  0  0  0
   -0.5549    0.5731    1.4246 C   0  0  0  0  0  0  0  0  0  0  0  0
   -0.1716    2.0022    1.2908 N   0  0  0  0  0  4  0  0  0  0  0  0
    2.1921    0.9199   -0.2828 C   0  0  0  0  0  0  0  0  0  0  0  0
    1.6356    2.1270   -0.6551 N   0  0  0  0  0  0  0  0  0  0  0  0
    2.6463    2.8608   -1.0665 C   0  0  0  0  0  0  0  0  0  0  0  0
    2.5694    4.1101   -1.5480 N   0  0  0  0  0  0  0  0  0  0  0  0
    3.6963    4.8731   -2.0348 C   0  0  0  0  0  0  0  0  0  0  0  0
    3.8354    2.1859   -0.9316 N   0  0  0  0  0  0  0  0  0  0  0  0
    3.5714    0.9494   -0.3996 C   0  0  0  0  0  0  0  0  0  0  0  0
    5.4706   -0.0833   -0.1298 H   0  0  0  0  0  0  0  0  0  0  0  0
    4.3218   -4.2310    1.7844 H   0  0  0  0  0  0  0  0  0  0  0  0
    0.8560   -4.5514    2.2269 H   0  0  0  0  0  0  0  0  0  0  0  0
    2.3844   -5.3340    2.4293 H   0  0  0  0  0  0  0  0  0  0  0  0
   -0.3755    0.0829   -0.6689 H   0  0  0  0  0  0  0  0  0  0  0  0
   -0.3348   -1.3003    0.3893 H   0  0  0  0  0  0  0  0  0  0  0  0
   -1.6484    0.5423    1.3962 H   0  0  0  0  0  0  0  0  0  0  0  0
   -0.2119    0.2434    2.4101 H   0  0  0  0  0  0  0  0  0  0  0  0
    0.7158    2.1910    1.7741 H   0  0  0  0  0  0  0  0  0  0  0  0
   -0.8776    2.6579    1.6373 H   0  0  0  0  0  0  0  0  0  0  0  0
    0.0546    2.2476    0.3041 H   0  0  0  0  0  0  0  0  0  0  0  0
    1.6573    4.5323   -1.6958 H   0  0  0  0  0  0  0  0  0  0  0  0
    4.4339    5.0343   -1.2420 H   0  0  0  0  0  0  0  0  0  0  0  0
    3.3557    5.8545   -2.3796 H   0  0  0  0  0  0  0  0  0  0  0  0
    4.1777    4.3688   -2.8790 H   0  0  0  0  0  0  0  0  0  0  0  0
    4.7459    2.5444   -1.1771 H   0  0  0  0  0  0  0  0  0  0  0  0
 21  1  1  0
  1  2  2  0
  2  3  1  0
  3  4  2  0
  3  5  1  0
  5 22  1  0
  5  6  1  0
  6  7  1  0
  7 23  1  0
  7 24  1  0
  6  8  2  0
  2  9  1  0
  8  9  1  0
  9 10  2  0
 10 11  1  0
 11 25  1  0
 11 26  1  0
 11 12  1  0
 12 27  1  0
 12 28  1  0
 12 13  1  0
 13 29  1  0
 13 30  1  0
 13 31  1  0
 10 14  1  0
 14 15  1  0
 15 16  2  0
 16 17  1  0
 17 32  1  0
 17 18  1  0
 18 33  1  0
 18 34  1  0
 18 35  1  0
 16 19  1  0
 19 36  1  0
  1 20  1  0
 14 20  2  0
 19 20  1  0
M  CHG  1  13   1
M  END
>  <conformer_energy>  (1) 
-149.08

>  <ligand_smiles>  (1) 
CNc1nc2c(CC[NH3+])c3nc(N)[nH]c(=O)c3cc2[nH]1

>  <ligand_conf_name>  (1) 
MOL_0_isomer_0_conf_0

>  <ligand_molecule_name>  (1) 
MOL_0_isomer_0

$$$$
