MOL_0_isomer_0_chiral_N_isomer_0_conf_0
     RDKit          3D

 25 26  0  0  0  0  0  0  0  0999 V2000
    2.3920   -3.4425    1.3744 C   0  0  0  0  0  0  0  0  0  0  0  0
    3.7364   -3.3979    1.4375 N   0  0  0  0  0  0  0  0  0  0  0  0
    4.3092   -2.2574    1.0015 C   0  0  0  0  0  0  0  0  0  0  0  0
    3.5805   -1.1927    0.4956 C   0  0  0  0  0  0  0  0  0  0  0  0
    2.1852   -1.2206    0.4216 C   0  0  0  0  0  0  0  0  0  0  0  0
    1.5986   -2.4040    0.8912 C   0  0  0  0  0  0  0  0  0  0  0  0
    1.4422   -0.1511   -0.0642 N   0  0  0  0  0  0  0  0  0  0  0  0
   -0.0236   -0.1531   -0.0928 C   0  0  0  0  0  0  0  0  0  0  0  0
   -0.5897    0.2911    1.2475 C   0  0  0  0  0  0  0  0  0  0  0  0
    2.0919    0.9987   -0.6742 C   0  0  0  0  0  0  0  0  0  0  0  0
    3.2570    1.4026    0.0817 N   0  0  0  0  0  0  0  0  0  0  0  0
    4.4489    0.2293    0.0150 S   0  0  0  0  0  6  0  0  0  0  0  0
    5.4198    0.5665    1.0317 O   0  0  0  0  0  0  0  0  0  0  0  0
    4.8322    0.0888   -1.3727 O   0  0  0  0  0  0  0  0  0  0  0  0
    1.9421   -4.3629    1.7371 H   0  0  0  0  0  0  0  0  0  0  0  0
    5.3932   -2.2256    1.0767 H   0  0  0  0  0  0  0  0  0  0  0  0
    0.5258   -2.5533    0.9011 H   0  0  0  0  0  0  0  0  0  0  0  0
   -0.4246   -1.1298   -0.3848 H   0  0  0  0  0  0  0  0  0  0  0  0
   -0.3841    0.5378   -0.8659 H   0  0  0  0  0  0  0  0  0  0  0  0
   -1.6830    0.3198    1.2059 H   0  0  0  0  0  0  0  0  0  0  0  0
   -0.2324    1.2923    1.5108 H   0  0  0  0  0  0  0  0  0  0  0  0
   -0.2992   -0.3888    2.0543 H   0  0  0  0  0  0  0  0  0  0  0  0
    1.4112    1.8592   -0.6879 H   0  0  0  0  0  0  0  0  0  0  0  0
    2.3369    0.7972   -1.7238 H   0  0  0  0  0  0  0  0  0  0  0  0
    3.6429    2.2930   -0.2227 H   0  0  0  0  0  0  0  0  0  0  0  0
 15  1  1  0
  1  2  2  0
  2  3  1  0
  3 16  1  0
  3  4  2  0
  4  5  1  0
  1  6  1  0
  5  6  2  0
  6 17  1  0
  5  7  1  0
  7  8  1  0
  8 18  1  0
  8 19  1  0
  8  9  1  0
  9 20  1  0
  9 21  1  0
  9 22  1  0
  7 10  1  0
 10 23  1  0
 10 24  1  0
 10 11  1  0
 11 25  1  1
  4 12  1  0
 11 12  1  0
 12 13  2  0
 12 14  2  0
M  END
>  <conformer_energy>  (1) 
-134.43

>  <ligand_smiles>  (1) 
CCN1CNS(=O)(=O)c2cnccc21

>  <ligand_conf_name>  (1) 
MOL_0_isomer_0_chiral_N_isomer_0_conf_0

>  <ligand_molecule_name>  (1) 
MOL_0_isomer_0_chiral_N_isomer_0

$$$$
MOL_0_isomer_0_chiral_N_isomer_1_conf_0
     RDKit          3D

 25 26  0  0  0  0  0  0  0  0999 V2000
    2.4002   -3.4512    1.2945 C   0  0  0  0  0  0  0  0  0  0  0  0
    3.7453   -3.4061    1.3441 N   0  0  0  0  0  0  0  0  0  0  0  0
    4.3136   -2.2503    0.9442 C   0  0  0  0  0  0  0  0  0  0  0  0
    3.5783   -1.1673    0.4894 C   0  0  0  0  0  0  0  0  0  0  0  0
    2.1816   -1.1980    0.4263 C   0  0  0  0  0  0  0  0  0  0  0  0
    1.6001   -2.3970    0.8598 C   0  0  0  0  0  0  0  0  0  0  0  0
    1.4338   -0.1104   -0.0137 N   0  0  0  0  0  0  0  0  0  0  0  0
   -0.0325   -0.1173   -0.0483 C   0  0  0  0  0  0  0  0  0  0  0  0
   -0.6010    0.2775    1.3063 C   0  0  0  0  0  0  0  0  0  0  0  0
    2.0894    1.0020   -0.6805 C   0  0  0  0  0  0  0  0  0  0  0  0
    3.2281    1.4253    0.0894 N   0  0  0  0  0  0  0  0  0  0  0  0
    4.4470    0.2839    0.0806 S   0  0  0  0  0  6  0  0  0  0  0  0
    5.3208    0.6169    1.1835 O   0  0  0  0  0  0  0  0  0  0  0  0
    4.9336    0.1439   -1.2732 O   0  0  0  0  0  0  0  0  0  0  0  0
    1.9563   -4.3861    1.6267 H   0  0  0  0  0  0  0  0  0  0  0  0
    5.3984   -2.2199    1.0089 H   0  0  0  0  0  0  0  0  0  0  0  0
    0.5275   -2.5486    0.8739 H   0  0  0  0  0  0  0  0  0  0  0  0
   -0.4282   -1.0851   -0.3752 H   0  0  0  0  0  0  0  0  0  0  0  0
   -0.3964    0.6000   -0.7951 H   0  0  0  0  0  0  0  0  0  0  0  0
   -1.6943    0.3048    1.2648 H   0  0  0  0  0  0  0  0  0  0  0  0
   -0.2461    1.2698    1.6044 H   0  0  0  0  0  0  0  0  0  0  0  0
   -0.3092   -0.4296    2.0889 H   0  0  0  0  0  0  0  0  0  0  0  0
    1.4134    1.8625   -0.7519 H   0  0  0  0  0  0  0  0  0  0  0  0
    2.3610    0.7393   -1.7096 H   0  0  0  0  0  0  0  0  0  0  0  0
    3.0103    1.7311    1.0338 H   0  0  0  0  0  0  0  0  0  0  0  0
 15  1  1  0
  1  2  2  0
  2  3  1  0
  3 16  1  0
  3  4  2  0
  4  5  1  0
  1  6  1  0
  5  6  2  0
  6 17  1  0
  5  7  1  0
  7  8  1  0
  8 18  1  0
  8 19  1  0
  8  9  1  0
  9 20  1  0
  9 21  1  0
  9 22  1  0
  7 10  1  0
 10 23  1  0
 10 24  1  0
 10 11  1  0
 11 25  1  6
  4 12  1  0
 11 12  1  0
 12 13  2  0
 12 14  2  0
M  END
>  <conformer_energy>  (2) 
-139.71

>  <ligand_smiles>  (2) 
CCN1CNS(=O)(=O)c2cnccc21

>  <ligand_conf_name>  (2) 
MOL_0_isomer_0_chiral_N_isomer_1_conf_0

>  <ligand_molecule_name>  (2) 
MOL_0_isomer_0_chiral_N_isomer_1

$$$$
