MOL_0_isomer_0_conf_0
     RDKit          3D

 55 57  0  0  0  0  0  0  0  0999 V2000
    3.3734   -0.9316   -3.2611 O   0  0  0  0  0  0  0  0  0  0  0  0
    3.1286   -0.3550   -1.9618 C   0  0  1  0  0  0  0  0  0  0  0  0
    3.4844    1.1222   -2.0381 C   0  0  1  0  0  0  0  0  0  0  0  0
    4.6739    1.3013   -2.8077 O   0  0  0  0  0  0  0  0  0  0  0  0
    2.2215    1.7172   -2.6798 C   0  0  2  0  0  0  0  0  0  0  0  0
    1.8842    3.0419   -2.1908 N   0  0  0  0  0  0  0  0  0  0  0  0
    0.8650    3.3789   -1.3373 C   0  0  0  0  0  0  0  0  0  0  0  0
    0.8537    4.6682   -1.0650 N   0  0  0  0  0  0  0  0  0  0  0  0
    1.8949    5.1910   -1.8018 C   0  0  0  0  0  0  0  0  0  0  0  0
    2.3937    6.4972   -1.9403 C   0  0  0  0  0  0  0  0  0  0  0  0
    1.8597    7.5764   -1.2731 N   0  0  0  0  0  0  0  0  0  0  0  0
    3.4486    6.7034   -2.7624 N   0  0  0  0  0  0  0  0  0  0  0  0
    3.9677    5.6375   -3.4112 C   0  0  0  0  0  0  0  0  0  0  0  0
    3.5750    4.3498   -3.3605 N   0  0  0  0  0  0  0  0  0  0  0  0
    2.5356    4.1984   -2.5247 C   0  0  0  0  0  0  0  0  0  0  0  0
    1.1268    0.8198   -2.3862 O   0  0  0  0  0  0  0  0  0  0  0  0
    1.6391   -0.3169   -1.6501 C   0  0  2  0  0  0  0  0  0  0  0  0
    1.3870   -0.1498   -0.1497 C   0  0  0  0  0  0  0  0  0  0  0  0
   -0.0042   -0.2183    0.1026 O   0  0  0  0  0  0  0  0  0  0  0  0
   -0.4559   -0.1266    1.6679 P   0  0  1  0  0  5  0  0  0  0  0  0
   -1.9204   -0.4667    1.7181 O   0  0  0  0  0  0  0  0  0  0  0  0
    0.5957   -0.8561    2.4668 O   0  0  0  0  0  1  0  0  0  0  0  0
   -0.2598    1.4588    1.8616 O   0  0  0  0  0  0  0  0  0  0  0  0
   -0.4862    2.0796    3.0299 C   0  0  0  0  0  0  0  0  0  0  0  0
   -0.9006    1.5852    4.0723 O   0  0  0  0  0  0  0  0  0  0  0  0
   -0.1517    3.5795    2.9020 C   0  0  1  0  0  0  0  0  0  0  0  0
   -0.5343    4.2897    4.1578 N   0  0  0  0  0  0  0  0  0  0  0  0
    1.3364    3.8162    2.5339 C   0  0  1  0  0  0  0  0  0  0  0  0
    1.5904    5.3042    2.2533 C   0  0  0  0  0  0  0  0  0  0  0  0
    2.3138    3.2706    3.5988 C   0  0  0  0  0  0  0  0  0  0  0  0
    3.7690    3.2971    3.1481 C   0  0  0  0  0  0  0  0  0  0  0  0
    2.9803   -1.8245   -3.2523 H   0  0  0  0  0  0  0  0  0  0  0  0
    3.7343   -0.9094   -1.2394 H   0  0  0  0  0  0  0  0  0  0  0  0
    3.6566    1.5365   -1.0383 H   0  0  0  0  0  0  0  0  0  0  0  0
    4.6301    0.6168   -3.5082 H   0  0  0  0  0  0  0  0  0  0  0  0
    2.3090    1.7913   -3.7702 H   0  0  0  0  0  0  0  0  0  0  0  0
    0.1651    2.6498   -0.9423 H   0  0  0  0  0  0  0  0  0  0  0  0
    2.2816    8.4798   -1.4035 H   0  0  0  0  0  0  0  0  0  0  0  0
    1.0867    7.4185   -0.6413 H   0  0  0  0  0  0  0  0  0  0  0  0
    4.8139    5.8472   -4.0589 H   0  0  0  0  0  0  0  0  0  0  0  0
    1.1113   -1.1996   -2.0268 H   0  0  0  0  0  0  0  0  0  0  0  0
    1.7586    0.8121    0.2158 H   0  0  0  0  0  0  0  0  0  0  0  0
    1.8936   -0.9581    0.3872 H   0  0  0  0  0  0  0  0  0  0  0  0
   -0.7951    3.9769    2.1070 H   0  0  0  0  0  0  0  0  0  0  0  0
   -1.5254    4.0824    4.3124 H   0  0  0  0  0  0  0  0  0  0  0  0
   -0.0836    3.7820    4.9251 H   0  0  0  0  0  0  0  0  0  0  0  0
    1.5359    3.2745    1.6005 H   0  0  0  0  0  0  0  0  0  0  0  0
    2.5619    5.4536    1.7716 H   0  0  0  0  0  0  0  0  0  0  0  0
    0.8302    5.7111    1.5784 H   0  0  0  0  0  0  0  0  0  0  0  0
    1.5767    5.8965    3.1742 H   0  0  0  0  0  0  0  0  0  0  0  0
    2.2244    3.8402    4.5311 H   0  0  0  0  0  0  0  0  0  0  0  0
    2.0591    2.2312    3.8359 H   0  0  0  0  0  0  0  0  0  0  0  0
    4.4012    2.8059    3.8949 H   0  0  0  0  0  0  0  0  0  0  0  0
    3.8962    2.7692    2.1976 H   0  0  0  0  0  0  0  0  0  0  0  0
    4.1350    4.3209    3.0294 H   0  0  0  0  0  0  0  0  0  0  0  0
 32  1  1  0
  1  2  1  0
  2 33  1  1
  2  3  1  0
  3 34  1  1
  3  4  1  0
  4 35  1  0
  3  5  1  0
  5 36  1  6
  5  6  1  0
  6  7  1  0
  7 37  1  0
  7  8  2  0
  8  9  1  0
  9 10  1  0
 10 11  1  0
 11 38  1  0
 11 39  1  0
 10 12  2  0
 12 13  1  0
 13 40  1  0
 13 14  2  0
  9 15  2  0
  6 15  1  0
 14 15  1  0
  5 16  1  0
  2 17  1  0
 16 17  1  0
 17 41  1  6
 17 18  1  0
 18 42  1  0
 18 43  1  0
 18 19  1  0
 19 20  1  0
 20 21  2  0
 20 22  1  1
 20 23  1  0
 23 24  1  0
 24 25  2  0
 24 26  1  0
 26 44  1  6
 26 27  1  0
 27 45  1  0
 27 46  1  0
 26 28  1  0
 28 47  1  6
 28 29  1  0
 29 48  1  0
 29 49  1  0
 29 50  1  0
 28 30  1  0
 30 51  1  0
 30 52  1  0
 30 31  1  0
 31 53  1  0
 31 54  1  0
 31 55  1  0
M  CHG  1  22  -1
M  END
>  <conformer_energy>  (1) 
6.86

>  <ligand_smiles>  (1) 
CC[C@H](C)[C@H](N)C(=O)O[P@](=O)([O-])OC[C@H]1O[C@@H](n2cnc3c(N)ncnc32)[C@H](O)[C@@H]1O

>  <ligand_conf_name>  (1) 
MOL_0_isomer_0_conf_0

>  <ligand_molecule_name>  (1) 
MOL_0_isomer_0

$$$$
