MOL_0_isomer_0_conf_0
     RDKit          3D

 18 20  0  0  0  0  0  0  0  0999 V2000
    0.0286    0.0078   -0.0426 O   0  0  0  0  0  0  0  0  0  0  0  0
    1.3928   -0.0010    0.0095 C   0  0  0  0  0  0  0  0  0  0  0  0
    2.0779    0.0132   -1.2175 C   0  0  0  0  0  0  0  0  0  0  0  0
    3.4736    0.0056   -1.2551 C   0  0  0  0  0  0  0  0  0  0  0  0
    4.1253   -0.0164   -0.0368 C   0  0  0  0  0  0  0  0  0  0  0  0
    3.4497   -0.0309    1.1972 C   0  0  0  0  0  0  0  0  0  0  0  0
    4.5786   -0.0584    2.6008 S   0  0  0  0  0  0  0  0  0  0  0  0
    5.8956   -0.0494    1.4793 C   0  0  0  0  0  0  0  0  0  0  0  0
    7.1977   -0.0583    1.5616 N   0  0  0  0  0  0  0  0  0  0  0  0
    7.6646   -0.0415    0.2454 N   0  0  0  0  0  0  0  0  0  0  0  0
    6.6194   -0.0232   -0.5657 C   0  0  0  0  0  0  0  0  0  0  0  0
    5.4925   -0.0278    0.1830 N   0  0  0  0  0  0  0  0  0  0  0  0
    2.0666   -0.0232    1.2319 C   0  0  0  0  0  0  0  0  0  0  0  0
   -0.3261   -0.0036    0.8624 H   0  0  0  0  0  0  0  0  0  0  0  0
    1.5086    0.0304   -2.1447 H   0  0  0  0  0  0  0  0  0  0  0  0
    3.9990    0.0166   -2.2035 H   0  0  0  0  0  0  0  0  0  0  0  0
    6.6457   -0.0073   -1.6449 H   0  0  0  0  0  0  0  0  0  0  0  0
    1.5375   -0.0342    2.1777 H   0  0  0  0  0  0  0  0  0  0  0  0
 14  1  1  0
  1  2  1  0
  2  3  2  0
  3 15  1  0
  3  4  1  0
  4 16  1  0
  4  5  2  0
  5  6  1  0
  6  7  1  0
  7  8  1  0
  8  9  2  0
  9 10  1  0
 10 11  2  0
 11 17  1  0
  8 12  1  0
  5 12  1  0
 11 12  1  0
  2 13  1  0
  6 13  2  0
 13 18  1  0
M  END
>  <conformer_energy>  (1) 
25.13

>  <ligand_smiles>  (1) 
Oc1ccc2c(c1)sc1nncn12

>  <ligand_conf_name>  (1) 
MOL_0_isomer_0_conf_0

>  <ligand_molecule_name>  (1) 
MOL_0_isomer_0

$$$$
