MOL_0_isomer_0_conf_0
     RDKit          3D

 92 96  0  0  0  0  0  0  0  0999 V2000
   -4.4738    0.8113    2.2820 C   0  0  0  0  0  0  0  0  0  0  0  0
   -4.8142    1.0684    0.9453 C   0  0  0  0  0  0  0  0  0  0  0  0
   -3.8647    0.9366   -0.0698 C   0  0  0  0  0  0  0  0  0  0  0  0
   -2.5845    0.5392    0.2790 C   0  0  0  0  0  0  0  0  0  0  0  0
   -2.2470    0.2798    1.6117 C   0  0  0  0  0  0  0  0  0  0  0  0
   -3.1801    0.4161    2.6266 C   0  0  0  0  0  0  0  0  0  0  0  0
   -0.8134   -0.1043    1.7206 C   0  0  0  0  0  0  0  0  0  0  0  0
   -0.3632   -0.3525    0.2771 N   0  0  0  0  0  4  0  0  0  0  0  0
    1.0584   -0.0047   -0.0415 C   0  0  0  0  0  0  0  0  0  0  0  0
    2.0114   -0.9694    0.6518 C   0  0  0  0  0  0  0  0  0  0  0  0
    3.4921   -0.6696    0.3752 C   0  0  0  0  0  0  0  0  0  0  0  0
    4.2259   -1.6936    1.0406 O   0  0  0  0  0  0  0  0  0  0  0  0
    5.5877   -1.6657    1.1489 C   0  0  0  0  0  0  0  0  0  0  0  0
    6.1338   -2.6583    1.9859 C   0  0  0  0  0  0  0  0  0  0  0  0
    5.2261   -3.4944    2.5807 O   0  0  0  0  0  0  0  0  0  0  0  0
    5.7020   -4.6445    3.2702 C   0  0  0  0  0  0  0  0  0  0  0  0
    7.5174   -2.7303    2.1785 C   0  0  0  0  0  0  0  0  0  0  0  0
    8.3999   -1.8259    1.5393 C   0  0  0  0  0  0  0  0  0  0  0  0
    9.8079   -1.8205    1.6899 C   0  0  0  0  0  0  0  0  0  0  0  0
   10.4045   -2.7209    2.5568 N   0  0  0  0  0  0  0  0  0  0  0  0
   11.8055   -3.1392    2.5304 C   0  0  1  0  0  0  0  0  0  0  0  0
   12.3498   -3.1385    3.9613 C   0  0  0  0  0  0  0  0  0  0  0  0
   13.7481   -3.7333    4.0553 C   0  0  0  0  0  0  0  0  0  0  0  0
   13.7668   -5.1427    3.4969 N   0  0  2  0  0  4  0  0  0  0  0  0
   15.1528   -5.8304    3.6642 C   0  0  0  0  0  0  0  0  0  0  0  0
   15.0959   -7.2672    3.1419 C   0  0  0  0  0  0  0  0  0  0  0  0
   15.5540   -5.8544    5.1408 C   0  0  0  0  0  0  0  0  0  0  0  0
   13.2805   -5.1526    2.0600 C   0  0  0  0  0  0  0  0  0  0  0  0
   11.8829   -4.5556    1.9599 C   0  0  0  0  0  0  0  0  0  0  0  0
   10.5869   -0.9666    0.9938 N   0  0  0  0  0  0  0  0  0  0  0  0
    9.9868   -0.0695    0.1782 C   0  0  0  0  0  0  0  0  0  0  0  0
   10.7510    0.8517   -0.5310 N   0  0  0  0  0  0  0  0  0  0  0  0
   12.2128    0.6716   -0.5273 C   0  0  0  0  0  0  0  0  0  0  0  0
   12.9668    1.8170   -1.2564 C   0  0  0  0  0  0  0  0  0  0  0  0
   12.7727    3.1684   -0.5825 N   0  0  0  0  0  4  0  0  0  0  0  0
   13.0904    4.3088   -1.5339 C   0  0  0  0  0  0  0  0  0  0  0  0
   13.5824    3.3291    0.6845 C   0  0  0  0  0  0  0  0  0  0  0  0
    8.6583   -0.0181    0.0322 N   0  0  0  0  0  4  0  0  0  0  0  0
    7.8371   -0.8623    0.6786 C   0  0  0  0  0  0  0  0  0  0  0  0
    6.4389   -0.7767    0.4911 C   0  0  0  0  0  0  0  0  0  0  0  0
   -1.4016    0.3537   -0.6053 C   0  0  0  0  0  0  0  0  0  0  0  0
   -5.2328    0.9254    3.0562 H   0  0  0  0  0  0  0  0  0  0  0  0
   -5.8311    1.3761    0.7024 H   0  0  0  0  0  0  0  0  0  0  0  0
   -4.1437    1.1457   -1.0992 H   0  0  0  0  0  0  0  0  0  0  0  0
   -2.9338    0.2260    3.6678 H   0  0  0  0  0  0  0  0  0  0  0  0
   -0.2157    0.7167    2.1275 H   0  0  0  0  0  0  0  0  0  0  0  0
   -0.6573   -1.0352    2.2726 H   0  0  0  0  0  0  0  0  0  0  0  0
   -0.5292   -1.3538    0.1131 H   0  0  0  0  0  0  0  0  0  0  0  0
    1.1681   -0.0777   -1.1286 H   0  0  0  0  0  0  0  0  0  0  0  0
    1.2275    1.0320    0.2672 H   0  0  0  0  0  0  0  0  0  0  0  0
    1.8517   -0.9560    1.7376 H   0  0  0  0  0  0  0  0  0  0  0  0
    1.7915   -1.9986    0.3374 H   0  0  0  0  0  0  0  0  0  0  0  0
    3.6969   -0.7050   -0.7004 H   0  0  0  0  0  0  0  0  0  0  0  0
    3.7570    0.3149    0.7761 H   0  0  0  0  0  0  0  0  0  0  0  0
    4.8337   -5.2348    3.5783 H   0  0  0  0  0  0  0  0  0  0  0  0
    6.2499   -4.3567    4.1728 H   0  0  0  0  0  0  0  0  0  0  0  0
    6.3186   -5.2702    2.6164 H   0  0  0  0  0  0  0  0  0  0  0  0
    7.9207   -3.5037    2.8255 H   0  0  0  0  0  0  0  0  0  0  0  0
    9.8832   -2.9403    3.4018 H   0  0  0  0  0  0  0  0  0  0  0  0
   12.4159   -2.4614    1.9207 H   0  0  0  0  0  0  0  0  0  0  0  0
   12.3646   -2.1125    4.3488 H   0  0  0  0  0  0  0  0  0  0  0  0
   11.6785   -3.7032    4.6220 H   0  0  0  0  0  0  0  0  0  0  0  0
   14.4816   -3.1456    3.4942 H   0  0  0  0  0  0  0  0  0  0  0  0
   14.0365   -3.7752    5.1078 H   0  0  0  0  0  0  0  0  0  0  0  0
   13.1194   -5.7183    4.0569 H   0  0  0  0  0  0  0  0  0  0  0  0
   15.8694   -5.2400    3.0827 H   0  0  0  0  0  0  0  0  0  0  0  0
   15.0170   -7.2982    2.0514 H   0  0  0  0  0  0  0  0  0  0  0  0
   14.2504   -7.8173    3.5692 H   0  0  0  0  0  0  0  0  0  0  0  0
   16.0134   -7.8092    3.3966 H   0  0  0  0  0  0  0  0  0  0  0  0
   15.8184   -4.8569    5.5046 H   0  0  0  0  0  0  0  0  0  0  0  0
   16.4421   -6.4782    5.2925 H   0  0  0  0  0  0  0  0  0  0  0  0
   14.7506   -6.2531    5.7700 H   0  0  0  0  0  0  0  0  0  0  0  0
   14.0077   -4.5932    1.4624 H   0  0  0  0  0  0  0  0  0  0  0  0
   13.2394   -6.1890    1.7180 H   0  0  0  0  0  0  0  0  0  0  0  0
   11.1754   -5.2105    2.4859 H   0  0  0  0  0  0  0  0  0  0  0  0
   11.5669   -4.5481    0.9095 H   0  0  0  0  0  0  0  0  0  0  0  0
   10.3373    1.3375   -1.3174 H   0  0  0  0  0  0  0  0  0  0  0  0
   12.4547   -0.2690   -1.0362 H   0  0  0  0  0  0  0  0  0  0  0  0
   12.5835    0.5982    0.5007 H   0  0  0  0  0  0  0  0  0  0  0  0
   12.5770    1.9107   -2.2759 H   0  0  0  0  0  0  0  0  0  0  0  0
   14.0433    1.6213   -1.2984 H   0  0  0  0  0  0  0  0  0  0  0  0
   11.7857    3.2752   -0.3199 H   0  0  0  0  0  0  0  0  0  0  0  0
   14.1388    4.2262   -1.8313 H   0  0  0  0  0  0  0  0  0  0  0  0
   12.8976    5.2491   -1.0106 H   0  0  0  0  0  0  0  0  0  0  0  0
   12.4252    4.2191   -2.3957 H   0  0  0  0  0  0  0  0  0  0  0  0
   14.6421    3.2267    0.4380 H   0  0  0  0  0  0  0  0  0  0  0  0
   13.2675    2.5605    1.3924 H   0  0  0  0  0  0  0  0  0  0  0  0
   13.3693    4.3175    1.0997 H   0  0  0  0  0  0  0  0  0  0  0  0
    8.2708    0.6839   -0.5849 H   0  0  0  0  0  0  0  0  0  0  0  0
    6.0226   -0.0277   -0.1749 H   0  0  0  0  0  0  0  0  0  0  0  0
   -1.5968   -0.3018   -1.4585 H   0  0  0  0  0  0  0  0  0  0  0  0
   -0.9836    1.3162   -0.9146 H   0  0  0  0  0  0  0  0  0  0  0  0
 42  1  1  0
  1  2  2  0
  2 43  1  0
  2  3  1  0
  3 44  1  0
  3  4  2  0
  4  5  1  0
  1  6  1  0
  5  6  2  0
  6 45  1  0
  5  7  1  0
  7 46  1  0
  7 47  1  0
  7  8  1  0
  8 48  1  0
  8  9  1  0
  9 49  1  0
  9 50  1  0
  9 10  1  0
 10 51  1  0
 10 52  1  0
 10 11  1  0
 11 53  1  0
 11 54  1  0
 11 12  1  0
 12 13  1  0
 13 14  2  0
 14 15  1  0
 15 16  1  0
 16 55  1  0
 16 56  1  0
 16 57  1  0
 14 17  1  0
 17 58  1  0
 17 18  2  0
 18 19  1  0
 19 20  1  0
 20 59  1  0
 20 21  1  0
 21 60  1  6
 21 22  1  0
 22 61  1  0
 22 62  1  0
 22 23  1  0
 23 63  1  0
 23 64  1  0
 23 24  1  0
 24 65  1  1
 24 25  1  0
 25 66  1  0
 25 26  1  0
 26 67  1  0
 26 68  1  0
 26 69  1  0
 25 27  1  0
 27 70  1  0
 27 71  1  0
 27 72  1  0
 24 28  1  0
 28 73  1  0
 28 74  1  0
 21 29  1  0
 28 29  1  0
 29 75  1  0
 29 76  1  0
 19 30  2  0
 30 31  1  0
 31 32  1  0
 32 77  1  0
 32 33  1  0
 33 78  1  0
 33 79  1  0
 33 34  1  0
 34 80  1  0
 34 81  1  0
 34 35  1  0
 35 82  1  0
 35 36  1  0
 36 83  1  0
 36 84  1  0
 36 85  1  0
 35 37  1  0
 37 86  1  0
 37 87  1  0
 37 88  1  0
 31 38  2  0
 38 89  1  0
 18 39  1  0
 38 39  1  0
 13 40  1  0
 39 40  2  0
 40 90  1  0
  4 41  1  0
  8 41  1  0
 41 91  1  0
 41 92  1  0
M  CHG  4   8   1  24   1  35   1  38   1
M  END
>  <conformer_energy>  (1) 
228.86

>  <ligand_smiles>  (1) 
COc1cc2c(NC3CC[NH+](C(C)C)CC3)nc(NCC[NH+](C)C)[nH+]c2cc1OCCC[NH+]1Cc2ccccc2C1

>  <ligand_conf_name>  (1) 
MOL_0_isomer_0_conf_0

>  <ligand_molecule_name>  (1) 
MOL_0_isomer_0

$$$$
