MOL_0_isomer_0_conf_0
     RDKit          3D

 65 68  0  0  0  0  0  0  0  0999 V2000
    9.7757   -5.6315    1.0847 C   0  0  0  0  0  0  0  0  0  0  0  0
   10.0867   -5.2905   -0.2320 C   0  0  0  0  0  0  0  0  0  0  0  0
    9.0816   -5.0420   -1.1749 C   0  0  0  0  0  0  0  0  0  0  0  0
    7.7516   -5.1542   -0.7445 C   0  0  0  0  0  0  0  0  0  0  0  0
    7.4234   -5.4760    0.5683 C   0  0  0  0  0  0  0  0  0  0  0  0
    6.0684   -5.4817    0.7473 N   0  0  0  0  0  0  0  0  0  0  0  0
    5.5421   -5.1342   -0.4144 C   0  0  0  0  0  0  0  0  0  0  0  0
    4.0716   -4.9139   -0.6479 C   0  0  0  0  0  0  0  0  0  0  0  0
    3.5559   -3.7129    0.0345 N   0  0  0  0  0  0  0  0  0  0  0  0
    2.0788   -3.6951    0.0017 C   0  0  0  0  0  0  0  0  0  0  0  0
    1.4838   -2.4544    0.7015 C   0  0  0  0  0  0  0  0  0  0  0  0
    2.0720   -1.2254    0.1613 N   0  0  0  0  0  0  0  0  0  0  0  0
    1.3831   -0.2073   -0.4859 C   0  0  0  0  0  0  0  0  0  0  0  0
    1.9552    0.6309   -1.1808 O   0  0  0  0  0  0  0  0  0  0  0  0
   -0.0617   -0.1665   -0.3229 C   0  0  0  0  0  0  0  0  0  0  0  0
   -0.8242   -0.0652    0.8733 C   0  0  0  0  0  0  0  0  0  0  0  0
   -0.3438    0.0299    2.2749 C   0  0  0  0  0  0  0  0  0  0  0  0
   -2.1389   -0.0497    0.6246 N   0  0  0  0  0  0  0  0  0  0  0  0
   -2.2228   -0.0731   -0.7166 N   0  0  0  0  0  0  0  0  0  0  0  0
   -3.5274    0.0012   -1.3333 C   0  0  0  0  0  0  0  0  0  0  0  0
   -1.0045   -0.1366   -1.3412 C   0  0  0  0  0  0  0  0  0  0  0  0
   -0.8451   -0.1521   -2.8174 C   0  0  0  0  0  0  0  0  0  0  0  0
    3.5329   -1.2174    0.1733 C   0  0  0  0  0  0  0  0  0  0  0  0
    4.0981   -2.4618   -0.5364 C   0  0  0  0  0  0  0  0  0  0  0  0
    6.5311   -5.0141   -1.3762 N   0  0  0  0  0  0  0  0  0  0  0  0
    6.3544   -4.6877   -2.7810 C   0  0  0  0  0  0  0  0  0  0  0  0
    6.2487   -5.8829   -3.7728 C   0  0  0  0  0  0  0  0  0  0  0  0
    5.0678   -6.8105   -3.4437 C   0  0  0  0  0  0  0  0  0  0  0  0
    6.0249   -5.3025   -5.1845 C   0  0  0  0  0  0  0  0  0  0  0  0
    7.5381   -6.7204   -3.7992 C   0  0  0  0  0  0  0  0  0  0  0  0
    8.4429   -5.7262    1.4993 C   0  0  0  0  0  0  0  0  0  0  0  0
   10.5734   -5.8198    1.7992 H   0  0  0  0  0  0  0  0  0  0  0  0
   11.1301   -5.2167   -0.5318 H   0  0  0  0  0  0  0  0  0  0  0  0
    9.3374   -4.7774   -2.1951 H   0  0  0  0  0  0  0  0  0  0  0  0
    3.8215   -4.8800   -1.7114 H   0  0  0  0  0  0  0  0  0  0  0  0
    3.5656   -5.8007   -0.2423 H   0  0  0  0  0  0  0  0  0  0  0  0
    1.6853   -4.5881    0.5016 H   0  0  0  0  0  0  0  0  0  0  0  0
    1.7280   -3.7171   -1.0390 H   0  0  0  0  0  0  0  0  0  0  0  0
    1.7059   -2.4807    1.7745 H   0  0  0  0  0  0  0  0  0  0  0  0
    0.3992   -2.4776    0.5785 H   0  0  0  0  0  0  0  0  0  0  0  0
   -0.8972    0.8003    2.8224 H   0  0  0  0  0  0  0  0  0  0  0  0
    0.7173    0.2918    2.3192 H   0  0  0  0  0  0  0  0  0  0  0  0
   -0.4836   -0.9262    2.7900 H   0  0  0  0  0  0  0  0  0  0  0  0
   -4.2784   -0.3761   -0.6328 H   0  0  0  0  0  0  0  0  0  0  0  0
   -3.5369   -0.6132   -2.2369 H   0  0  0  0  0  0  0  0  0  0  0  0
   -3.7272    1.0479   -1.5765 H   0  0  0  0  0  0  0  0  0  0  0  0
   -1.3489   -1.0222   -3.2502 H   0  0  0  0  0  0  0  0  0  0  0  0
    0.2080   -0.2031   -3.1094 H   0  0  0  0  0  0  0  0  0  0  0  0
   -1.2716    0.7538   -3.2594 H   0  0  0  0  0  0  0  0  0  0  0  0
    3.8480   -1.2072    1.2235 H   0  0  0  0  0  0  0  0  0  0  0  0
    3.9301   -0.3114   -0.2942 H   0  0  0  0  0  0  0  0  0  0  0  0
    5.1888   -2.4358   -0.4354 H   0  0  0  0  0  0  0  0  0  0  0  0
    3.8614   -2.4020   -1.6064 H   0  0  0  0  0  0  0  0  0  0  0  0
    5.4685   -4.0483   -2.8613 H   0  0  0  0  0  0  0  0  0  0  0  0
    7.1965   -4.0439   -3.0656 H   0  0  0  0  0  0  0  0  0  0  0  0
    4.1168   -6.2698   -3.4735 H   0  0  0  0  0  0  0  0  0  0  0  0
    4.9952   -7.6281   -4.1702 H   0  0  0  0  0  0  0  0  0  0  0  0
    5.1749   -7.2675   -2.4550 H   0  0  0  0  0  0  0  0  0  0  0  0
    5.9432   -6.0976   -5.9342 H   0  0  0  0  0  0  0  0  0  0  0  0
    6.8538   -4.6505   -5.4808 H   0  0  0  0  0  0  0  0  0  0  0  0
    5.1031   -4.7114   -5.2271 H   0  0  0  0  0  0  0  0  0  0  0  0
    7.4802   -7.5071   -4.5601 H   0  0  0  0  0  0  0  0  0  0  0  0
    7.7191   -7.2160   -2.8402 H   0  0  0  0  0  0  0  0  0  0  0  0
    8.4088   -6.1010   -4.0379 H   0  0  0  0  0  0  0  0  0  0  0  0
    8.1894   -5.9790    2.5232 H   0  0  0  0  0  0  0  0  0  0  0  0
 32  1  1  0
  1  2  2  0
  2 33  1  0
  2  3  1  0
  3 34  1  0
  3  4  2  0
  4  5  1  0
  5  6  1  0
  6  7  2  0
  7  8  1  0
  8 35  1  0
  8 36  1  0
  8  9  1  0
  9 10  1  0
 10 37  1  0
 10 38  1  0
 10 11  1  0
 11 39  1  0
 11 40  1  0
 11 12  1  0
 12 13  1  0
 13 14  2  0
 13 15  1  0
 15 16  1  0
 16 17  1  0
 17 41  1  0
 17 42  1  0
 17 43  1  0
 16 18  2  0
 18 19  1  0
 19 20  1  0
 20 44  1  0
 20 45  1  0
 20 46  1  0
 15 21  2  0
 19 21  1  0
 21 22  1  0
 22 47  1  0
 22 48  1  0
 22 49  1  0
 12 23  1  0
 23 50  1  0
 23 51  1  0
  9 24  1  0
 23 24  1  0
 24 52  1  0
 24 53  1  0
  4 25  1  0
  7 25  1  0
 25 26  1  0
 26 54  1  0
 26 55  1  0
 26 27  1  0
 27 28  1  0
 28 56  1  0
 28 57  1  0
 28 58  1  0
 27 29  1  0
 29 59  1  0
 29 60  1  0
 29 61  1  0
 27 30  1  0
 30 62  1  0
 30 63  1  0
 30 64  1  0
  1 31  1  0
  5 31  2  0
 31 65  1  0
M  END
>  <conformer_energy>  (1) 
94.87

>  <ligand_smiles>  (1) 
Cc1nn(C)c(C)c1C(=O)N1CCN(Cc2nc3ccccc3n2CC(C)(C)C)CC1

>  <ligand_conf_name>  (1) 
MOL_0_isomer_0_conf_0

>  <ligand_molecule_name>  (1) 
MOL_0_isomer_0

$$$$
