MOL_0_isomer_0_conf_0
     RDKit          3D

 33 35  0  0  0  0  0  0  0  0999 V2000
    2.9032   -1.9258    3.4627 O   0  0  0  0  0  0  0  0  0  0  0  0
    3.0356   -0.5814    3.0028 C   0  0  0  0  0  0  0  0  0  0  0  0
    3.2972   -0.5515    1.4866 C   0  0  1  0  0  0  0  0  0  0  0  0
    2.1340   -1.0967    0.7249 N   0  0  0  0  0  0  0  0  0  0  0  0
    1.5771    0.0246   -0.0810 C   0  0  1  0  0  0  0  0  0  0  0  0
    0.0792   -0.0351   -0.0877 C   0  0  0  0  0  0  0  0  0  0  0  0
   -0.7508    0.0681   -1.1991 C   0  0  0  0  0  0  0  0  0  0  0  0
   -2.0635   -0.0136   -0.7913 N   0  0  0  0  0  0  0  0  0  0  0  0
   -2.0932   -0.1737    0.5639 C   0  0  0  0  0  0  0  0  0  0  0  0
   -3.2110   -0.3114    1.4330 C   0  0  0  0  0  0  0  0  0  0  0  0
   -4.3858   -0.3055    1.0870 O   0  0  0  0  0  0  0  0  0  0  0  0
   -2.8178   -0.4593    2.7422 N   0  0  0  0  0  0  0  0  0  0  0  0
   -1.4939   -0.4717    3.1271 C   0  0  0  0  0  0  0  0  0  0  0  0
   -0.4590   -0.3487    2.3528 N   0  0  0  0  0  0  0  0  0  0  0  0
   -0.8011   -0.1865    1.0069 C   0  0  0  0  0  0  0  0  0  0  0  0
    2.1454    1.3206    0.5140 C   0  0  2  0  0  0  0  0  0  0  0  0
    2.2594    2.3759   -0.4421 O   0  0  0  0  0  0  0  0  0  0  0  0
    3.5298    0.8691    0.9693 C   0  0  2  0  0  0  0  0  0  0  0  0
    4.4089    0.8617   -0.1745 O   0  0  0  0  0  0  0  0  0  0  0  0
    2.5144   -2.4462    2.7360 H   0  0  0  0  0  0  0  0  0  0  0  0
    2.1290   -0.0326    3.2745 H   0  0  0  0  0  0  0  0  0  0  0  0
    3.8739   -0.1309    3.5439 H   0  0  0  0  0  0  0  0  0  0  0  0
    4.1559   -1.1973    1.2679 H   0  0  0  0  0  0  0  0  0  0  0  0
    1.3986   -1.3465    1.3965 H   0  0  0  0  0  0  0  0  0  0  0  0
    1.9329   -0.0948   -1.1132 H   0  0  0  0  0  0  0  0  0  0  0  0
   -0.5145    0.2026   -2.2470 H   0  0  0  0  0  0  0  0  0  0  0  0
   -2.8792    0.0364   -1.3902 H   0  0  0  0  0  0  0  0  0  0  0  0
   -3.5568   -0.5628    3.4204 H   0  0  0  0  0  0  0  0  0  0  0  0
   -1.3632   -0.6036    4.2134 H   0  0  0  0  0  0  0  0  0  0  0  0
    1.5528    1.6762    1.3647 H   0  0  0  0  0  0  0  0  0  0  0  0
    3.1459    2.2720   -0.8457 H   0  0  0  0  0  0  0  0  0  0  0  0
    3.9640    1.5513    1.7058 H   0  0  0  0  0  0  0  0  0  0  0  0
    4.2796    0.0106   -0.6366 H   0  0  0  0  0  0  0  0  0  0  0  0
 20  1  1  0
  1  2  1  0
  2 21  1  0
  2 22  1  0
  2  3  1  0
  3 23  1  1
  3  4  1  0
  4 24  1  0
  4  5  1  0
  5 25  1  6
  5  6  1  0
  6  7  2  0
  7 26  1  0
  7  8  1  0
  8 27  1  0
  8  9  1  0
  9 10  1  0
 10 11  2  0
 10 12  1  0
 12 28  1  0
 12 13  1  0
 13 29  1  0
 13 14  2  0
  6 15  1  0
  9 15  2  0
 14 15  1  0
  5 16  1  0
 16 30  1  1
 16 17  1  0
 17 31  1  0
  3 18  1  0
 16 18  1  0
 18 32  1  1
 18 19  1  0
 19 33  1  0
M  END
>  <conformer_energy>  (1) 
11.45

>  <ligand_smiles>  (1) 
O=c1[nH]cnc2c([C@@H]3N[C@H](CO)[C@@H](O)[C@H]3O)c[nH]c12

>  <ligand_conf_name>  (1) 
MOL_0_isomer_0_conf_0

>  <ligand_molecule_name>  (1) 
MOL_0_isomer_0

$$$$
