MOL_0_isomer_0_conf_0
     RDKit          3D

 39 41  0  0  0  0  0  0  0  0999 V2000
    2.2492   -2.4972   -1.1536 O   0  0  0  0  0  0  0  0  0  0  0  0
    2.0804   -1.0804   -0.9257 C   0  0  1  0  0  0  0  0  0  0  0  0
    2.9727   -0.3556   -1.9093 C   0  0  1  0  0  0  0  0  0  0  0  0
    4.1911   -1.0725   -2.1434 O   0  0  0  0  0  0  0  0  0  0  0  0
    2.0708   -0.2934   -3.1329 C   0  0  2  0  0  0  0  0  0  0  0  0
    2.4314    0.7807   -4.0411 N   0  0  0  0  0  0  0  0  0  0  0  0
    2.1284    2.1118   -3.8812 C   0  0  0  0  0  0  0  0  0  0  0  0
    2.6266    2.8572   -4.8490 N   0  0  0  0  0  0  0  0  0  0  0  0
    3.2614    1.9596   -5.6792 C   0  0  0  0  0  0  0  0  0  0  0  0
    3.9730    2.1360   -6.8797 C   0  0  0  0  0  0  0  0  0  0  0  0
    4.1572    3.3741   -7.4575 N   0  0  0  0  0  0  0  0  0  0  0  0
    4.4971    1.0556   -7.4952 N   0  0  0  0  0  0  0  0  0  0  0  0
    4.2999   -0.1442   -6.9073 C   0  0  0  0  0  0  0  0  0  0  0  0
    4.9813   -1.4761   -7.7451 Cl  0  0  0  0  0  0  0  0  0  0  0  0
    3.6414   -0.4482   -5.7760 N   0  0  0  0  0  0  0  0  0  0  0  0
    3.1468    0.6623   -5.2024 C   0  0  0  0  0  0  0  0  0  0  0  0
    0.7451   -0.0444   -2.6482 O   0  0  0  0  0  0  0  0  0  0  0  0
    0.6612   -0.6459   -1.3100 C   0  0  2  0  0  0  0  0  0  0  0  0
    0.0617    0.3691   -0.3411 C   0  0  0  0  0  0  0  0  0  0  0  0
   -1.3177    0.0748   -0.1864 O   0  0  0  0  0  0  0  0  0  0  0  0
   -1.8690   -0.0918    1.3393 P   0  0  2  0  0  5  0  0  0  0  0  0
   -3.3775   -0.2809    1.1966 O   0  0  0  0  0  0  0  0  0  0  0  0
   -1.4259    1.1394    2.1132 O   0  0  0  0  0  1  0  0  0  0  0  0
   -1.2174   -1.4592    1.8494 O   0  0  0  0  0  0  0  0  0  0  0  0
    0.1901   -2.2361    1.9185 P   0  0  0  0  0  5  0  0  0  0  0  0
    1.2735   -1.2229    2.2560 O   0  0  0  0  0  0  0  0  0  0  0  0
    0.4220   -2.8574    0.5378 O   0  0  0  0  0  1  0  0  0  0  0  0
    0.0076   -3.3042    2.9932 O   0  0  0  0  0  1  0  0  0  0  0  0
    1.5857   -2.8590   -0.4689 H   0  0  0  0  0  0  0  0  0  0  0  0
    2.3817   -0.8812    0.1030 H   0  0  0  0  0  0  0  0  0  0  0  0
    3.2156    0.6461   -1.5365 H   0  0  0  0  0  0  0  0  0  0  0  0
    3.9701   -1.9748   -1.8072 H   0  0  0  0  0  0  0  0  0  0  0  0
    2.0690   -1.2311   -3.7016 H   0  0  0  0  0  0  0  0  0  0  0  0
    1.5431    2.4667   -3.0398 H   0  0  0  0  0  0  0  0  0  0  0  0
    4.6807    3.4347   -8.3130 H   0  0  0  0  0  0  0  0  0  0  0  0
    3.7632    4.1773   -6.9863 H   0  0  0  0  0  0  0  0  0  0  0  0
   -0.0064   -1.5048   -1.4346 H   0  0  0  0  0  0  0  0  0  0  0  0
    0.1318    1.3839   -0.7469 H   0  0  0  0  0  0  0  0  0  0  0  0
    0.5656    0.3739    0.6243 H   0  0  0  0  0  0  0  0  0  0  0  0
 29  1  1  0
  1  2  1  0
  2 30  1  1
  2  3  1  0
  3 31  1  1
  3  4  1  0
  4 32  1  0
  3  5  1  0
  5 33  1  6
  5  6  1  0
  6  7  1  0
  7 34  1  0
  7  8  2  0
  8  9  1  0
  9 10  1  0
 10 11  1  0
 11 35  1  0
 11 36  1  0
 10 12  2  0
 12 13  1  0
 13 14  1  0
 13 15  2  0
  9 16  2  0
  6 16  1  0
 15 16  1  0
  5 17  1  0
  2 18  1  0
 17 18  1  0
 18 37  1  6
 18 19  1  0
 19 38  1  0
 19 39  1  0
 19 20  1  0
 20 21  1  0
 21 22  2  0
 21 23  1  1
 21 24  1  0
 24 25  1  0
 25 26  2  0
 25 27  1  0
 25 28  1  0
M  CHG  3  23  -1  27  -1  28  -1
M  END
>  <conformer_energy>  (1) 
-3.46

>  <ligand_smiles>  (1) 
Nc1nc(Cl)nc2c1ncn2[C@@H]1O[C@H](CO[P@](=O)([O-])OP(=O)([O-])[O-])[C@@H](O)[C@H]1O

>  <ligand_conf_name>  (1) 
MOL_0_isomer_0_conf_0

>  <ligand_molecule_name>  (1) 
MOL_0_isomer_0

$$$$
