1LPZ - prepared_ligand_conf_0
     RDKit          3D

 55 58  0  0  0  0  0  0  0  0999 V2000
    3.3750   -0.5312   -1.2705 C   0  0  0  0  0  0  0  0  0  0  0  0
    1.9833   -0.5141   -1.3466 C   0  0  0  0  0  0  0  0  0  0  0  0
    1.2237    0.0617   -0.3189 C   0  0  0  0  0  0  0  0  0  0  0  0
   -0.2423    0.0946   -0.4016 C   0  0  0  0  0  0  0  0  0  0  0  0
   -0.8170    0.5935   -1.4736 N   0  0  0  0  0  0  0  0  0  0  0  0
   -0.9543   -0.3776    0.5982 N   0  0  0  0  0  0  0  0  0  0  0  0
    1.8879    0.6128    0.7904 C   0  0  0  0  0  0  0  0  0  0  0  0
    3.2913    0.6190    0.8691 C   0  0  0  0  0  0  0  0  0  0  0  0
    4.0238    1.2174    2.0552 C   0  0  0  0  0  0  0  0  0  0  0  0
    3.5639    2.5738    2.3625 N   0  0  0  0  0  0  0  0  0  0  0  0
    3.8264    3.6953    1.5888 C   0  0  0  0  0  0  0  0  0  0  0  0
    4.6452    3.6993    0.3897 C   0  0  0  0  0  0  0  0  0  0  0  0
    5.5396    2.8879    0.1757 O   0  0  0  0  0  0  0  0  0  0  0  0
    4.2914    4.6568   -0.5329 N   0  0  0  0  0  0  0  0  0  0  0  0
    4.8951    4.6989   -1.8439 C   0  0  0  0  0  0  0  0  0  0  0  0
    4.3219    3.6298   -2.7453 C   0  0  0  0  0  0  0  0  0  0  0  0
    2.9352    3.5031   -2.9259 C   0  0  0  0  0  0  0  0  0  0  0  0
    2.4203    2.4849   -3.7292 C   0  0  0  0  0  0  0  0  0  0  0  0
    0.7138    2.2916   -3.8664 Cl  0  0  0  0  0  0  0  0  0  0  0  0
    3.2679    1.5997   -4.3871 C   0  0  0  0  0  0  0  0  0  0  0  0
    4.6437    1.7269   -4.2171 C   0  0  0  0  0  0  0  0  0  0  0  0
    5.6986    0.6159   -4.9984 Cl  0  0  0  0  0  0  0  0  0  0  0  0
    5.1727    2.7296   -3.4035 C   0  0  0  0  0  0  0  0  0  0  0  0
    3.1552    4.7460    2.1934 C   0  0  0  0  0  0  0  0  0  0  0  0
    2.4683    4.2661    3.3422 C   0  0  0  0  0  0  0  0  0  0  0  0
    1.6433    4.8854    4.3144 C   0  0  0  0  0  0  0  0  0  0  0  0
    1.3123    6.3537    4.3157 C   0  0  0  0  0  0  0  0  0  0  0  0
    1.1428    4.0870    5.3606 C   0  0  0  0  0  0  0  0  0  0  0  0
    1.4324    2.7293    5.4402 C   0  0  0  0  0  0  0  0  0  0  0  0
    2.2358    2.1129    4.4812 C   0  0  0  0  0  0  0  0  0  0  0  0
    2.7483    2.9009    3.4365 C   0  0  0  0  0  0  0  0  0  0  0  0
    4.0227    0.0323   -0.1721 C   0  0  0  0  0  0  0  0  0  0  0  0
    3.9651   -0.9780   -2.0692 H   0  0  0  0  0  0  0  0  0  0  0  0
    1.5039   -0.9660   -2.2130 H   0  0  0  0  0  0  0  0  0  0  0  0
   -0.2453    0.9863   -2.2190 H   0  0  0  0  0  0  0  0  0  0  0  0
   -1.8193    0.6432   -1.5877 H   0  0  0  0  0  0  0  0  0  0  0  0
   -0.4863   -0.7754    1.4064 H   0  0  0  0  0  0  0  0  0  0  0  0
   -1.9647   -0.3786    0.5949 H   0  0  0  0  0  0  0  0  0  0  0  0
    1.3093    1.0729    1.5910 H   0  0  0  0  0  0  0  0  0  0  0  0
    5.1066    1.2652    1.9028 H   0  0  0  0  0  0  0  0  0  0  0  0
    3.8671    0.5779    2.9287 H   0  0  0  0  0  0  0  0  0  0  0  0
    3.5534    5.3090   -0.3178 H   0  0  0  0  0  0  0  0  0  0  0  0
    5.9796    4.5860   -1.7354 H   0  0  0  0  0  0  0  0  0  0  0  0
    4.6981    5.6857   -2.2760 H   0  0  0  0  0  0  0  0  0  0  0  0
    2.2598    4.1908   -2.4224 H   0  0  0  0  0  0  0  0  0  0  0  0
    2.8678    0.8127   -5.0195 H   0  0  0  0  0  0  0  0  0  0  0  0
    6.2511    2.7988   -3.2673 H   0  0  0  0  0  0  0  0  0  0  0  0
    3.1705    5.7756    1.8600 H   0  0  0  0  0  0  0  0  0  0  0  0
    0.2411    6.5024    4.4878 H   0  0  0  0  0  0  0  0  0  0  0  0
    1.5592    6.8228    3.3589 H   0  0  0  0  0  0  0  0  0  0  0  0
    1.8752    6.8618    5.1052 H   0  0  0  0  0  0  0  0  0  0  0  0
    0.5256    4.5398    6.1357 H   0  0  0  0  0  0  0  0  0  0  0  0
    1.0417    2.1463    6.2717 H   0  0  0  0  0  0  0  0  0  0  0  0
    2.4668    1.0569    4.5747 H   0  0  0  0  0  0  0  0  0  0  0  0
    5.1132    0.0281   -0.1434 H   0  0  0  0  0  0  0  0  0  0  0  0
 33  1  1  0
  1  2  2  0
  2 34  1  0
  2  3  1  0
  3  4  1  0
  4  5  1  0
  5 35  1  0
  5 36  1  0
  4  6  2  0
  6 37  1  0
  6 38  1  0
  3  7  2  0
  7 39  1  0
  7  8  1  0
  8  9  1  0
  9 40  1  0
  9 41  1  0
  9 10  1  0
 10 11  1  0
 11 12  1  0
 12 13  2  0
 12 14  1  0
 14 42  1  0
 14 15  1  0
 15 43  1  0
 15 44  1  0
 15 16  1  0
 16 17  2  0
 17 45  1  0
 17 18  1  0
 18 19  1  0
 18 20  2  0
 20 46  1  0
 20 21  1  0
 21 22  1  0
 16 23  1  0
 21 23  2  0
 23 47  1  0
 11 24  2  0
 24 48  1  0
 24 25  1  0
 25 26  2  0
 26 27  1  0
 27 49  1  0
 27 50  1  0
 27 51  1  0
 26 28  1  0
 28 52  1  0
 28 29  2  0
 29 53  1  0
 29 30  1  0
 30 54  1  0
 25 31  1  0
 10 31  1  0
 30 31  2  0
  1 32  1  0
  8 32  2  0
 32 55  1  0
M  CHG  1   6   1
M  END
>  <conformer_energy>  (1) 
-17.30

>  <ligand_smiles>  (1) 
Cc1cccc2c1cc(C(=O)NCc1cc(Cl)cc(Cl)c1)n2Cc1cccc(C(N)=[NH2+])c1

>  <ligand_conf_name>  (1) 
1LPZ - prepared_ligand_conf_0

>  <ligand_molecule_name>  (1) 
1LPZ - prepared_ligand

$$$$
