MOL_0_isomer_0_conf_0
     RDKit          3D

 44 43  0  0  0  0  0  0  0  0999 V2000
    1.3714   -1.0629    0.8874 N   0  0  0  0  0  0  0  0  0  0  0  0
    2.1949   -1.9441    0.2268 C   0  0  0  0  0  0  0  0  0  0  0  0
    1.7952   -2.7998   -0.5552 O   0  0  0  0  0  0  0  0  0  0  0  0
    3.6586   -1.7376    0.5699 C   0  0  0  0  0  0  0  0  0  0  0  0
    4.5727   -2.7184   -0.1607 C   0  0  0  0  0  0  0  0  0  0  0  0
    6.0409   -2.4804    0.1942 C   0  0  0  0  0  0  0  0  0  0  0  0
    6.9570   -3.4620   -0.5382 C   0  0  0  0  0  0  0  0  0  0  0  0
    8.4267   -3.2187   -0.1876 C   0  0  0  0  0  0  0  0  0  0  0  0
    9.3416   -4.1986   -0.9246 C   0  0  0  0  0  0  0  0  0  0  0  0
   10.8163   -4.0687   -0.5310 C   0  0  0  0  0  0  0  0  0  0  0  0
   11.4603   -2.7077   -0.8062 C   0  0  0  0  0  0  0  0  0  0  0  0
   11.4275   -2.3045   -2.2720 C   0  0  0  0  0  0  0  0  0  0  0  0
   -0.0697   -1.0891    0.7370 C   0  0  0  0  0  0  0  0  0  0  0  0
   -0.7407    0.1048    1.4071 C   0  0  0  0  0  0  0  0  0  0  0  0
   -0.6390    0.0552    2.9306 C   0  0  0  0  0  0  0  0  0  0  0  0
   -1.2315    1.2698    3.6478 C   0  0  0  0  0  0  0  0  0  0  0  0
   -1.8379    2.1086    2.9283 O   0  0  0  0  0  0  0  0  0  0  0  0
   -1.0246    1.2801    4.8951 O   0  0  0  0  0  1  0  0  0  0  0  0
    1.7655   -0.4046    1.5482 H   0  0  0  0  0  0  0  0  0  0  0  0
    3.7756   -1.8522    1.6542 H   0  0  0  0  0  0  0  0  0  0  0  0
    3.9283   -0.7073    0.3084 H   0  0  0  0  0  0  0  0  0  0  0  0
    4.4335   -2.6157   -1.2441 H   0  0  0  0  0  0  0  0  0  0  0  0
    4.2915   -3.7469    0.0978 H   0  0  0  0  0  0  0  0  0  0  0  0
    6.1793   -2.5868    1.2771 H   0  0  0  0  0  0  0  0  0  0  0  0
    6.3198   -1.4525   -0.0680 H   0  0  0  0  0  0  0  0  0  0  0  0
    6.8161   -3.3585   -1.6211 H   0  0  0  0  0  0  0  0  0  0  0  0
    6.6807   -4.4898   -0.2729 H   0  0  0  0  0  0  0  0  0  0  0  0
    8.5687   -3.3270    0.8943 H   0  0  0  0  0  0  0  0  0  0  0  0
    8.6906   -2.1880   -0.4493 H   0  0  0  0  0  0  0  0  0  0  0  0
    9.0211   -5.2239   -0.7010 H   0  0  0  0  0  0  0  0  0  0  0  0
    9.2285   -4.0717   -2.0074 H   0  0  0  0  0  0  0  0  0  0  0  0
   10.9196   -4.2915    0.5384 H   0  0  0  0  0  0  0  0  0  0  0  0
   11.3846   -4.8427   -1.0620 H   0  0  0  0  0  0  0  0  0  0  0  0
   10.9824   -1.9292   -0.2017 H   0  0  0  0  0  0  0  0  0  0  0  0
   12.5068   -2.7509   -0.4804 H   0  0  0  0  0  0  0  0  0  0  0  0
   10.4044   -2.1249   -2.6152 H   0  0  0  0  0  0  0  0  0  0  0  0
   11.9934   -1.3789   -2.4202 H   0  0  0  0  0  0  0  0  0  0  0  0
   11.8745   -3.0793   -2.9031 H   0  0  0  0  0  0  0  0  0  0  0  0
   -0.4370   -2.0348    1.1509 H   0  0  0  0  0  0  0  0  0  0  0  0
   -0.2940   -1.0884   -0.3359 H   0  0  0  0  0  0  0  0  0  0  0  0
   -1.7988    0.1194    1.1180 H   0  0  0  0  0  0  0  0  0  0  0  0
   -0.2947    1.0348    1.0327 H   0  0  0  0  0  0  0  0  0  0  0  0
    0.4101   -0.0222    3.2394 H   0  0  0  0  0  0  0  0  0  0  0  0
   -1.1548   -0.8384    3.3031 H   0  0  0  0  0  0  0  0  0  0  0  0
 19  1  1  0
  1  2  1  0
  2  3  2  0
  2  4  1  0
  4 20  1  0
  4 21  1  0
  4  5  1  0
  5 22  1  0
  5 23  1  0
  5  6  1  0
  6 24  1  0
  6 25  1  0
  6  7  1  0
  7 26  1  0
  7 27  1  0
  7  8  1  0
  8 28  1  0
  8 29  1  0
  8  9  1  0
  9 30  1  0
  9 31  1  0
  9 10  1  0
 10 32  1  0
 10 33  1  0
 10 11  1  0
 11 34  1  0
 11 35  1  0
 11 12  1  0
 12 36  1  0
 12 37  1  0
 12 38  1  0
  1 13  1  0
 13 39  1  0
 13 40  1  0
 13 14  1  0
 14 41  1  0
 14 42  1  0
 14 15  1  0
 15 43  1  0
 15 44  1  0
 15 16  1  0
 16 17  2  0
 16 18  1  0
M  CHG  1  18  -1
M  END
>  <conformer_energy>  (1) 
-30.28

>  <ligand_smiles>  (1) 
CCCCCCCCCC(=O)NCCCC(=O)[O-]

>  <ligand_conf_name>  (1) 
MOL_0_isomer_0_conf_0

>  <ligand_molecule_name>  (1) 
MOL_0_isomer_0

$$$$
