MOL_0_isomer_0_conf_0
     RDKit          3D

 82 85  0  0  0  0  0  0  0  0999 V2000
    5.4172    4.8338    0.6188 O   0  0  0  0  0  0  0  0  0  0  0  0
    4.1382    4.8418    0.0812 C   0  0  0  0  0  0  0  0  0  0  0  0
    3.4911    3.7070   -0.2525 C   0  0  0  0  0  0  0  0  0  0  0  0
    4.1488    2.3684   -0.1290 C   0  0  0  0  0  0  0  0  0  0  0  0
    5.3629    2.2115   -0.0125 O   0  0  0  0  0  0  0  0  0  0  0  0
    3.2985    1.1521   -0.2034 C   0  0  0  0  0  0  0  0  0  0  0  0
    3.9074   -0.1122   -0.2297 C   0  0  0  0  0  0  0  0  0  0  0  0
    5.2779   -0.2907   -0.1910 O   0  0  0  0  0  0  0  0  0  0  0  0
    3.1441   -1.2837   -0.2886 C   0  0  0  0  0  0  0  0  0  0  0  0
    3.8742   -2.4938   -0.2878 N   0  0  0  0  0  0  0  0  0  0  0  0
    3.3883   -3.7724   -0.3411 C   0  0  0  0  0  0  0  0  0  0  0  0
    2.2149   -4.1342   -0.4442 O   0  0  0  0  0  0  0  0  0  0  0  0
    4.4600   -4.8589   -0.2543 C   0  0  0  0  0  0  0  0  0  0  0  0
    3.7943   -6.2135   -0.0917 N   0  0  0  0  0  4  0  0  0  0  0  0
    3.8674   -6.9230    1.2359 C   0  0  0  0  0  0  0  0  0  0  0  0
    3.3225   -6.0194    2.3450 C   0  0  0  0  0  0  0  0  0  0  0  0
    2.9869   -8.1744    1.1075 C   0  0  0  0  0  0  0  0  0  0  0  0
    5.3163   -7.3385    1.5005 C   0  0  0  0  0  0  0  0  0  0  0  0
    1.7570   -1.1869   -0.3171 C   0  0  0  0  0  0  0  0  0  0  0  0
    1.1161    0.0673   -0.2812 C   0  0  0  0  0  0  0  0  0  0  0  0
   -0.2783    0.1497   -0.2665 N   0  0  0  0  0  0  0  0  0  0  0  0
   -0.8875    0.1881    1.0599 C   0  0  0  0  0  0  0  0  0  0  0  0
   -1.0119   -0.5557   -1.3098 C   0  0  0  0  0  0  0  0  0  0  0  0
    1.8967    1.2473   -0.2337 C   0  0  0  0  0  0  0  0  0  0  0  0
    1.2372    2.6040   -0.1566 C   0  0  0  0  0  0  0  0  0  0  0  0
    2.0859    3.7048   -0.8046 C   0  0  1  0  0  0  0  0  0  0  0  0
    1.3714    5.0596   -0.6295 C   0  0  0  0  0  0  0  0  0  0  0  0
    2.2991    6.2331   -0.9989 C   0  0  2  0  0  0  0  0  0  0  0  0
    3.5509    6.2277   -0.1335 C   0  0  2  0  0  0  0  0  0  0  0  0
    4.5394    7.0222   -0.8390 O   0  0  0  0  0  0  0  0  0  0  0  0
    3.3919    6.8906    1.2406 C   0  0  0  0  0  0  0  0  0  0  0  0
    4.3844    6.9680    1.9750 O   0  0  0  0  0  0  0  0  0  0  0  0
    2.0726    7.4937    1.5978 C   0  0  0  0  0  0  0  0  0  0  0  0
    1.7442    7.6452    3.0633 C   0  0  0  0  0  0  0  0  0  0  0  0
    2.4167    7.1380    3.9563 O   0  0  0  0  0  0  0  0  0  0  0  0
    0.6228    8.3546    3.3566 N   0  0  0  0  0  0  0  0  0  0  0  0
    1.2299    7.8758    0.5928 C   0  0  0  0  0  0  0  0  0  0  0  0
    0.0891    8.4210    0.6402 O   0  0  0  0  0  1  0  0  0  0  0  0
    1.6047    7.6062   -0.8753 C   0  0  1  0  0  0  0  0  0  0  0  0
    2.4788    8.7143   -1.4961 N   0  0  0  0  0  4  0  0  0  0  0  0
    2.1242   10.0948   -0.9992 C   0  0  0  0  0  0  0  0  0  0  0  0
    2.4601    8.6887   -2.9927 C   0  0  0  0  0  0  0  0  0  0  0  0
    5.4285    5.4454    1.3937 H   0  0  0  0  0  0  0  0  0  0  0  0
    5.6820    0.6071   -0.0822 H   0  0  0  0  0  0  0  0  0  0  0  0
    4.8790   -2.3200   -0.2376 H   0  0  0  0  0  0  0  0  0  0  0  0
    5.1359   -4.6790    0.5802 H   0  0  0  0  0  0  0  0  0  0  0  0
    5.0185   -4.8941   -1.1920 H   0  0  0  0  0  0  0  0  0  0  0  0
    4.1013   -6.8359   -0.8479 H   0  0  0  0  0  0  0  0  0  0  0  0
    2.7925   -6.0236   -0.2977 H   0  0  0  0  0  0  0  0  0  0  0  0
    3.2755   -6.5579    3.3009 H   0  0  0  0  0  0  0  0  0  0  0  0
    2.3088   -5.6684    2.1120 H   0  0  0  0  0  0  0  0  0  0  0  0
    3.9552   -5.1394    2.5058 H   0  0  0  0  0  0  0  0  0  0  0  0
    2.9958   -8.7570    2.0348 H   0  0  0  0  0  0  0  0  0  0  0  0
    3.3363   -8.8286    0.3013 H   0  0  0  0  0  0  0  0  0  0  0  0
    1.9459   -7.9077    0.8942 H   0  0  0  0  0  0  0  0  0  0  0  0
    5.3829   -7.9398    2.4140 H   0  0  0  0  0  0  0  0  0  0  0  0
    5.9739   -6.4745    1.6333 H   0  0  0  0  0  0  0  0  0  0  0  0
    5.7179   -7.9409    0.6780 H   0  0  0  0  0  0  0  0  0  0  0  0
    1.1392   -2.0782   -0.3334 H   0  0  0  0  0  0  0  0  0  0  0  0
   -1.9535    0.4280    0.9823 H   0  0  0  0  0  0  0  0  0  0  0  0
   -0.4264    0.9528    1.6958 H   0  0  0  0  0  0  0  0  0  0  0  0
   -0.7923   -0.7829    1.5594 H   0  0  0  0  0  0  0  0  0  0  0  0
   -2.0442   -0.1908   -1.3541 H   0  0  0  0  0  0  0  0  0  0  0  0
   -1.0433   -1.6342   -1.1188 H   0  0  0  0  0  0  0  0  0  0  0  0
   -0.5617   -0.3820   -2.2942 H   0  0  0  0  0  0  0  0  0  0  0  0
    1.0530    2.8306    0.9018 H   0  0  0  0  0  0  0  0  0  0  0  0
    0.2658    2.5884   -0.6658 H   0  0  0  0  0  0  0  0  0  0  0  0
    2.1645    3.5004   -1.8817 H   0  0  0  0  0  0  0  0  0  0  0  0
    0.4767    5.0826   -1.2640 H   0  0  0  0  0  0  0  0  0  0  0  0
    1.0194    5.1521    0.4050 H   0  0  0  0  0  0  0  0  0  0  0  0
    2.5870    6.0799   -2.0473 H   0  0  0  0  0  0  0  0  0  0  0  0
    5.4053    6.7260   -0.4849 H   0  0  0  0  0  0  0  0  0  0  0  0
    0.3207    8.4866    4.3073 H   0  0  0  0  0  0  0  0  0  0  0  0
    0.0482    8.6793    2.5696 H   0  0  0  0  0  0  0  0  0  0  0  0
    0.7023    7.5700   -1.5056 H   0  0  0  0  0  0  0  0  0  0  0  0
    3.4482    8.5230   -1.1962 H   0  0  0  0  0  0  0  0  0  0  0  0
    1.0761   10.3007   -1.2330 H   0  0  0  0  0  0  0  0  0  0  0  0
    2.7675   10.8129   -1.5196 H   0  0  0  0  0  0  0  0  0  0  0  0
    2.3436   10.1613    0.0695 H   0  0  0  0  0  0  0  0  0  0  0  0
    1.4314    8.8262   -3.3358 H   0  0  0  0  0  0  0  0  0  0  0  0
    2.8651    7.7359   -3.3387 H   0  0  0  0  0  0  0  0  0  0  0  0
    3.0961    9.4978   -3.3607 H   0  0  0  0  0  0  0  0  0  0  0  0
 43  1  1  0
  1  2  1  0
  2  3  2  0
  3  4  1  0
  4  5  2  0
  4  6  1  0
  6  7  2  0
  7  8  1  0
  8 44  1  0
  7  9  1  0
  9 10  1  0
 10 45  1  0
 10 11  1  0
 11 12  2  0
 11 13  1  0
 13 46  1  0
 13 47  1  0
 13 14  1  0
 14 48  1  0
 14 49  1  0
 14 15  1  0
 15 16  1  0
 16 50  1  0
 16 51  1  0
 16 52  1  0
 15 17  1  0
 17 53  1  0
 17 54  1  0
 17 55  1  0
 15 18  1  0
 18 56  1  0
 18 57  1  0
 18 58  1  0
  9 19  2  0
 19 59  1  0
 19 20  1  0
 20 21  1  0
 21 22  1  0
 22 60  1  0
 22 61  1  0
 22 62  1  0
 21 23  1  0
 23 63  1  0
 23 64  1  0
 23 65  1  0
  6 24  1  0
 20 24  2  0
 24 25  1  0
 25 66  1  0
 25 67  1  0
  3 26  1  0
 25 26  1  0
 26 68  1  6
 26 27  1  0
 27 69  1  0
 27 70  1  0
 27 28  1  0
 28 71  1  6
  2 29  1  0
 28 29  1  0
 29 30  1  6
 30 72  1  0
 29 31  1  0
 31 32  2  0
 31 33  1  0
 33 34  1  0
 34 35  2  0
 34 36  1  0
 36 73  1  0
 36 74  1  0
 33 37  2  0
 37 38  1  0
 28 39  1  0
 37 39  1  0
 39 75  1  6
 39 40  1  0
 40 76  1  0
 40 41  1  0
 41 77  1  0
 41 78  1  0
 41 79  1  0
 40 42  1  0
 42 80  1  0
 42 81  1  0
 42 82  1  0
M  CHG  3  14   1  38  -1  40   1
M  END
>  <conformer_energy>  (1) 
44.63

>  <ligand_smiles>  (1) 
CN(C)c1cc(NC(=O)C[NH2+]C(C)(C)C)c(O)c2c1C[C@H]1C[C@H]3[C@H]([NH+](C)C)C([O-])=C(C(N)=O)C(=O)[C@@]3(O)C(O)=C1C2=O

>  <ligand_conf_name>  (1) 
MOL_0_isomer_0_conf_0

>  <ligand_molecule_name>  (1) 
MOL_0_isomer_0

$$$$
