MOL_0_isomer_0_conf_0
     RDKit          3D

 53 55  0  0  0  0  0  0  0  0999 V2000
    4.7566   -0.0076   -1.2997 O   0  0  0  0  0  0  0  0  0  0  0  0
    3.7370    0.9033   -0.8119 C   0  0  1  0  0  0  0  0  0  0  0  0
    3.8091    2.1943   -1.6143 C   0  0  1  0  0  0  0  0  0  0  0  0
    4.7534    2.0623   -2.7133 O   0  0  0  0  0  0  0  0  0  0  0  0
    2.4011    2.3833   -2.1717 C   0  0  2  0  0  0  0  0  0  0  0  0
    1.7653    3.6822   -1.8306 N   0  0  0  0  0  4  0  0  0  0  0  0
    2.3594    4.8247   -2.2378 C   0  0  0  0  0  0  0  0  0  0  0  0
    1.8169    6.0668   -1.9306 C   0  0  0  0  0  0  0  0  0  0  0  0
    0.6613    6.1321   -1.1647 C   0  0  0  0  0  0  0  0  0  0  0  0
    0.0608    4.9518   -0.7297 C   0  0  0  0  0  0  0  0  0  0  0  0
   -1.0767    4.9661    0.2577 C   0  0  0  0  0  0  0  0  0  0  0  0
   -0.5640    4.7447    1.5730 N   0  0  0  0  0  0  0  0  0  0  0  0
   -0.2310    5.7366    2.4587 C   0  0  0  0  0  0  0  0  0  0  0  0
   -0.5695    6.9063    2.3024 O   0  0  0  0  0  0  0  0  0  0  0  0
    0.5270    5.2169    3.4807 N   0  0  0  0  0  0  0  0  0  0  0  0
    1.0672    5.8503    4.6033 C   0  0  0  0  0  0  0  0  0  0  0  0
    0.8120    7.1803    4.9423 C   0  0  0  0  0  0  0  0  0  0  0  0
    1.3924    7.7413    6.0849 C   0  0  0  0  0  0  0  0  0  0  0  0
    2.2327    6.9604    6.8896 C   0  0  0  0  0  0  0  0  0  0  0  0
    2.8411    7.5491    8.0875 N   0  0  0  0  0  4  0  0  0  0  0  0
    3.5382    6.8188    8.8075 O   0  0  0  0  0  0  0  0  0  0  0  0
    2.6226    8.7488    8.3190 O   0  0  0  0  0  1  0  0  0  0  0  0
    2.4948    5.6265    6.5608 C   0  0  0  0  0  0  0  0  0  0  0  0
    1.9079    5.0791    5.4174 C   0  0  0  0  0  0  0  0  0  0  0  0
    0.6372    3.7309   -1.0886 C   0  0  0  0  0  0  0  0  0  0  0  0
    1.5826    1.2389   -1.9068 O   0  0  0  0  0  0  0  0  0  0  0  0
    2.3387    0.3354   -1.0716 C   0  0  2  0  0  0  0  0  0  0  0  0
    1.5310   -0.0386    0.1769 C   0  0  0  0  0  0  0  0  0  0  0  0
    0.9306    1.0648    0.8242 O   0  0  0  0  0  0  0  0  0  0  0  0
    1.8679    2.0371    1.7340 P   0  0  0  0  0  5  0  0  0  0  0  0
    0.8603    2.8105    2.5605 O   0  0  0  0  0  0  0  0  0  0  0  0
    2.5428    2.8964    0.6826 O   0  0  0  0  0  1  0  0  0  0  0  0
    2.7962    1.1013    2.4663 O   0  0  0  0  0  1  0  0  0  0  0  0
    4.9393   -0.5906   -0.5350 H   0  0  0  0  0  0  0  0  0  0  0  0
    3.9663    1.0583    0.2416 H   0  0  0  0  0  0  0  0  0  0  0  0
    4.1730    3.0382   -1.0233 H   0  0  0  0  0  0  0  0  0  0  0  0
    5.2653    1.2564   -2.4714 H   0  0  0  0  0  0  0  0  0  0  0  0
    2.4523    2.4288   -3.2692 H   0  0  0  0  0  0  0  0  0  0  0  0
    3.2845    4.7297   -2.7975 H   0  0  0  0  0  0  0  0  0  0  0  0
    2.3214    6.9770   -2.2386 H   0  0  0  0  0  0  0  0  0  0  0  0
    0.2693    7.0956   -0.8435 H   0  0  0  0  0  0  0  0  0  0  0  0
   -1.6198    5.9163    0.2109 H   0  0  0  0  0  0  0  0  0  0  0  0
   -1.7865    4.1639    0.0291 H   0  0  0  0  0  0  0  0  0  0  0  0
   -0.1468    3.8235    1.8103 H   0  0  0  0  0  0  0  0  0  0  0  0
    0.7852    4.2199    3.3225 H   0  0  0  0  0  0  0  0  0  0  0  0
    0.1601    7.7955    4.3298 H   0  0  0  0  0  0  0  0  0  0  0  0
    1.1770    8.7792    6.3257 H   0  0  0  0  0  0  0  0  0  0  0  0
    3.1463    5.0011    7.1657 H   0  0  0  0  0  0  0  0  0  0  0  0
    2.1152    4.0412    5.1472 H   0  0  0  0  0  0  0  0  0  0  0  0
    0.2403    2.7913   -0.7201 H   0  0  0  0  0  0  0  0  0  0  0  0
    2.4483   -0.5881   -1.6549 H   0  0  0  0  0  0  0  0  0  0  0  0
    2.1222   -0.6402    0.8744 H   0  0  0  0  0  0  0  0  0  0  0  0
    0.6948   -0.6705   -0.1433 H   0  0  0  0  0  0  0  0  0  0  0  0
 34  1  1  0
  1  2  1  0
  2 35  1  1
  2  3  1  0
  3 36  1  1
  3  4  1  0
  4 37  1  0
  3  5  1  0
  5 38  1  6
  5  6  1  0
  6  7  2  0
  7 39  1  0
  7  8  1  0
  8 40  1  0
  8  9  2  0
  9 41  1  0
  9 10  1  0
 10 11  1  0
 11 42  1  0
 11 43  1  0
 11 12  1  0
 12 44  1  0
 12 13  1  0
 13 14  2  0
 13 15  1  0
 15 45  1  0
 15 16  1  0
 16 17  2  0
 17 46  1  0
 17 18  1  0
 18 47  1  0
 18 19  2  0
 19 20  1  0
 20 21  2  0
 20 22  1  0
 19 23  1  0
 23 48  1  0
 16 24  1  0
 23 24  2  0
 24 49  1  0
  6 25  1  0
 10 25  2  0
 25 50  1  0
  5 26  1  0
  2 27  1  0
 26 27  1  0
 27 51  1  6
 27 28  1  0
 28 52  1  0
 28 53  1  0
 28 29  1  0
 29 30  1  0
 30 31  2  0
 30 32  1  0
 30 33  1  0
M  CHG  5   6   1  20   1  22  -1  32  -1  33  -1
M  END
>  <conformer_energy>  (1) 
-189.29

>  <ligand_smiles>  (1) 
O=C(NCc1ccc[n+]([C@@H]2O[C@H](COP(=O)([O-])[O-])[C@@H](O)[C@H]2O)c1)Nc1ccc([N+](=O)[O-])cc1

>  <ligand_conf_name>  (1) 
MOL_0_isomer_0_conf_0

>  <ligand_molecule_name>  (1) 
MOL_0_isomer_0

$$$$
