MOL_0_isomer_0_conf_0
     RDKit          3D

 55 58  0  0  0  0  0  0  0  0999 V2000
   12.4999   -5.6170   -1.7599 C   0  0  0  0  0  0  0  0  0  0  0  0
   12.3300   -6.3455   -2.9318 C   0  0  0  0  0  0  0  0  0  0  0  0
   11.2436   -6.0722   -3.7607 C   0  0  0  0  0  0  0  0  0  0  0  0
   10.3233   -5.0658   -3.4166 C   0  0  0  0  0  0  0  0  0  0  0  0
    9.2217   -4.7651   -4.2256 C   0  0  0  0  0  0  0  0  0  0  0  0
    8.3380   -3.7607   -3.8456 C   0  0  0  0  0  0  0  0  0  0  0  0
    8.5790   -3.0757   -2.6615 C   0  0  0  0  0  0  0  0  0  0  0  0
    7.6425   -1.9885   -2.1983 C   0  0  0  0  0  0  0  0  0  0  0  0
    6.7354   -2.4858   -1.0703 C   0  0  0  0  0  0  0  0  0  0  0  0
    5.6880   -1.4473   -0.6743 C   0  0  0  0  0  0  0  0  0  0  0  0
    6.3463   -0.2706   -0.2137 O   0  0  0  0  0  0  0  0  0  0  0  0
    5.4797    0.7221    0.1879 C   0  0  0  0  0  0  0  0  0  0  0  0
    6.0683    1.8252    0.6320 N   0  0  0  0  0  0  0  0  0  0  0  0
    5.2306    2.7862    1.0398 C   0  0  0  0  0  0  0  0  0  0  0  0
    6.0706    4.1917    1.5822 Cl  0  0  0  0  0  0  0  0  0  0  0  0
    3.8489    2.7043    1.0294 C   0  0  0  0  0  0  0  0  0  0  0  0
    2.9747    3.8227    1.5048 C   0  0  0  0  0  0  0  0  0  0  0  0
    3.3471    1.5286    0.4916 C   0  0  0  0  0  0  0  0  0  0  0  0
    1.9803    1.3248    0.3987 N   0  0  0  0  0  0  0  0  0  0  0  0
    1.4766    0.0310   -0.0278 C   0  0  0  0  0  0  0  0  0  0  0  0
   -0.0183   -0.0495    0.0255 C   0  0  0  0  0  0  0  0  0  0  0  0
   -0.9655    0.0954   -1.3969 S   0  0  0  0  0  0  0  0  0  0  0  0
   -2.3902   -0.0961   -0.4597 C   0  0  0  0  0  0  0  0  0  0  0  0
   -3.7248   -0.0783   -1.1169 C   0  0  0  0  0  0  0  0  0  0  0  0
   -2.1995   -0.2492    0.8321 N   0  0  0  0  0  0  0  0  0  0  0  0
   -0.8453   -0.2217    1.1234 C   0  0  0  0  0  0  0  0  0  0  0  0
   -0.4208   -0.3690    2.5409 C   0  0  0  0  0  0  0  0  0  0  0  0
    4.1563    0.5306    0.0975 N   0  0  0  0  0  0  0  0  0  0  0  0
    9.6359   -3.3538   -1.8606 N   0  0  0  0  0  0  0  0  0  0  0  0
   10.4909   -4.3243   -2.2297 C   0  0  0  0  0  0  0  0  0  0  0  0
   11.5818   -4.6178   -1.4223 C   0  0  0  0  0  0  0  0  0  0  0  0
   13.3435   -5.8199   -1.1052 H   0  0  0  0  0  0  0  0  0  0  0  0
   13.0405   -7.1230   -3.1998 H   0  0  0  0  0  0  0  0  0  0  0  0
   11.1174   -6.6458   -4.6757 H   0  0  0  0  0  0  0  0  0  0  0  0
    9.0473   -5.3080   -5.1506 H   0  0  0  0  0  0  0  0  0  0  0  0
    7.4812   -3.5229   -4.4668 H   0  0  0  0  0  0  0  0  0  0  0  0
    8.2423   -1.1354   -1.8586 H   0  0  0  0  0  0  0  0  0  0  0  0
    7.0393   -1.6298   -3.0412 H   0  0  0  0  0  0  0  0  0  0  0  0
    6.2246   -3.4077   -1.3741 H   0  0  0  0  0  0  0  0  0  0  0  0
    7.3514   -2.7295   -0.1955 H   0  0  0  0  0  0  0  0  0  0  0  0
    5.0589   -1.2186   -1.5440 H   0  0  0  0  0  0  0  0  0  0  0  0
    5.0658   -1.8700    0.1247 H   0  0  0  0  0  0  0  0  0  0  0  0
    2.8274    4.5518    0.7015 H   0  0  0  0  0  0  0  0  0  0  0  0
    3.4067    4.3307    2.3732 H   0  0  0  0  0  0  0  0  0  0  0  0
    1.9943    3.4643    1.8353 H   0  0  0  0  0  0  0  0  0  0  0  0
    1.4015    2.1214    0.1686 H   0  0  0  0  0  0  0  0  0  0  0  0
    1.8801   -0.7584    0.6204 H   0  0  0  0  0  0  0  0  0  0  0  0
    1.8261   -0.1860   -1.0457 H   0  0  0  0  0  0  0  0  0  0  0  0
   -3.8020   -0.8742   -1.8644 H   0  0  0  0  0  0  0  0  0  0  0  0
   -3.9050    0.8846   -1.6058 H   0  0  0  0  0  0  0  0  0  0  0  0
   -4.5169   -0.2338   -0.3771 H   0  0  0  0  0  0  0  0  0  0  0  0
   -1.2877   -0.4797    3.2001 H   0  0  0  0  0  0  0  0  0  0  0  0
    0.1423    0.5113    2.8663 H   0  0  0  0  0  0  0  0  0  0  0  0
    0.2121   -1.2539    2.6612 H   0  0  0  0  0  0  0  0  0  0  0  0
   11.7201   -4.0507   -0.5047 H   0  0  0  0  0  0  0  0  0  0  0  0
 32  1  1  0
  1  2  2  0
  2 33  1  0
  2  3  1  0
  3 34  1  0
  3  4  2  0
  4  5  1  0
  5 35  1  0
  5  6  2  0
  6 36  1  0
  6  7  1  0
  7  8  1  0
  8 37  1  0
  8 38  1  0
  8  9  1  0
  9 39  1  0
  9 40  1  0
  9 10  1  0
 10 41  1  0
 10 42  1  0
 10 11  1  0
 11 12  1  0
 12 13  2  0
 13 14  1  0
 14 15  1  0
 14 16  2  0
 16 17  1  0
 17 43  1  0
 17 44  1  0
 17 45  1  0
 16 18  1  0
 18 19  1  0
 19 46  1  0
 19 20  1  0
 20 47  1  0
 20 48  1  0
 20 21  1  0
 21 22  1  0
 22 23  1  0
 23 24  1  0
 24 49  1  0
 24 50  1  0
 24 51  1  0
 23 25  2  0
 21 26  2  0
 25 26  1  0
 26 27  1  0
 27 52  1  0
 27 53  1  0
 27 54  1  0
 12 28  1  0
 18 28  2  0
  7 29  2  0
  4 30  1  0
 29 30  1  0
  1 31  1  0
 30 31  2  0
 31 55  1  0
M  END
>  <conformer_energy>  (1) 
-59.55

>  <ligand_smiles>  (1) 
Cc1nc(C)c(CNc2nc(OCCCc3ccc4ccccc4n3)nc(Cl)c2C)s1

>  <ligand_conf_name>  (1) 
MOL_0_isomer_0_conf_0

>  <ligand_molecule_name>  (1) 
MOL_0_isomer_0

$$$$
