MOL_0_isomer_0_conf_0
     RDKit          3D

 60 63  0  0  0  0  0  0  0  0999 V2000
    4.9029   -4.7356   -2.3359 C   0  0  0  0  0  0  0  0  0  0  0  0
    4.6808   -3.5521   -3.0464 C   0  0  0  0  0  0  0  0  0  0  0  0
    4.1369   -2.4176   -2.4145 C   0  0  0  0  0  0  0  0  0  0  0  0
    3.9267   -1.1710   -3.1782 C   0  0  0  0  0  0  0  0  0  0  0  0
    3.1751   -1.1706   -4.3654 C   0  0  0  0  0  0  0  0  0  0  0  0
    2.9479   -0.0027   -5.1060 C   0  0  0  0  0  0  0  0  0  0  0  0
    3.5013    1.1799   -4.6124 C   0  0  0  0  0  0  0  0  0  0  0  0
    4.2512    1.2345   -3.4454 C   0  0  0  0  0  0  0  0  0  0  0  0
    4.6059    2.6034   -3.3048 C   0  0  0  0  0  0  0  0  0  0  0  0
    5.4052    3.2355   -2.2087 C   0  0  0  0  0  0  0  0  0  0  0  0
    6.7804    3.7363   -2.6313 N   0  0  0  0  0  4  0  0  0  0  0  0
    7.6636    3.9896   -1.4495 C   0  0  0  0  0  0  0  0  0  0  0  0
    6.7061    4.9344   -3.5391 C   0  0  0  0  0  0  0  0  0  0  0  0
    4.1415    3.3463   -4.3207 N   0  0  0  0  0  0  0  0  0  0  0  0
    3.4572    2.4659   -5.0801 N   0  0  0  0  0  0  0  0  0  0  0  0
    4.4725    0.0469   -2.7230 C   0  0  0  0  0  0  0  0  0  0  0  0
    3.8109   -2.5281   -1.0448 C   0  0  0  0  0  0  0  0  0  0  0  0
    3.2947   -1.4527   -0.3624 O   0  0  0  0  0  0  0  0  0  0  0  0
    1.8577   -1.5062   -0.3670 C   0  0  0  0  0  0  0  0  0  0  0  0
    1.3391   -0.1016   -0.0682 C   0  0  0  0  0  0  0  0  0  0  0  0
   -0.1471   -0.0164   -0.1096 C   0  0  0  0  0  0  0  0  0  0  0  0
   -1.0461   -0.0998    0.9888 C   0  0  0  0  0  0  0  0  0  0  0  0
   -0.7278   -0.2867    2.4268 C   0  0  0  0  0  0  0  0  0  0  0  0
   -2.3169    0.0167    0.5969 N   0  0  0  0  0  0  0  0  0  0  0  0
   -2.2472    0.1570   -0.7354 N   0  0  0  0  0  0  0  0  0  0  0  0
   -3.4702    0.2989   -1.4917 C   0  0  0  0  0  0  0  0  0  0  0  0
   -0.9626    0.1554   -1.2173 C   0  0  0  0  0  0  0  0  0  0  0  0
   -0.6420    0.3055   -2.6591 C   0  0  0  0  0  0  0  0  0  0  0  0
    4.0482   -3.7012   -0.3268 C   0  0  0  0  0  0  0  0  0  0  0  0
    4.5883   -4.7963   -0.9843 C   0  0  0  0  0  0  0  0  0  0  0  0
    4.8150   -5.9277   -0.3053 F   0  0  0  0  0  0  0  0  0  0  0  0
    5.3257   -5.6072   -2.8272 H   0  0  0  0  0  0  0  0  0  0  0  0
    4.9499   -3.5194   -4.1009 H   0  0  0  0  0  0  0  0  0  0  0  0
    2.7360   -2.1014   -4.7265 H   0  0  0  0  0  0  0  0  0  0  0  0
    2.3589   -0.0285   -6.0181 H   0  0  0  0  0  0  0  0  0  0  0  0
    5.5752    2.5034   -1.4115 H   0  0  0  0  0  0  0  0  0  0  0  0
    4.8691    4.0865   -1.7726 H   0  0  0  0  0  0  0  0  0  0  0  0
    7.1975    2.9782   -3.1852 H   0  0  0  0  0  0  0  0  0  0  0  0
    7.2241    4.7916   -0.8498 H   0  0  0  0  0  0  0  0  0  0  0  0
    8.6537    4.2729   -1.8166 H   0  0  0  0  0  0  0  0  0  0  0  0
    7.7385    3.0639   -0.8721 H   0  0  0  0  0  0  0  0  0  0  0  0
    6.0863    5.7008   -3.0653 H   0  0  0  0  0  0  0  0  0  0  0  0
    6.3030    4.6248   -4.5043 H   0  0  0  0  0  0  0  0  0  0  0  0
    7.7232    5.3068   -3.6927 H   0  0  0  0  0  0  0  0  0  0  0  0
    2.9825    2.8031   -5.9123 H   0  0  0  0  0  0  0  0  0  0  0  0
    5.0542    0.0582   -1.8042 H   0  0  0  0  0  0  0  0  0  0  0  0
    1.4725   -1.8477   -1.3372 H   0  0  0  0  0  0  0  0  0  0  0  0
    1.5228   -2.2085    0.4063 H   0  0  0  0  0  0  0  0  0  0  0  0
    1.7132    0.2219    0.9112 H   0  0  0  0  0  0  0  0  0  0  0  0
    1.7732    0.6090   -0.7830 H   0  0  0  0  0  0  0  0  0  0  0  0
   -1.6318   -0.4516    3.0222 H   0  0  0  0  0  0  0  0  0  0  0  0
   -0.2185    0.5989    2.8200 H   0  0  0  0  0  0  0  0  0  0  0  0
   -0.0724   -1.1527    2.5644 H   0  0  0  0  0  0  0  0  0  0  0  0
   -4.3234    0.0420   -0.8574 H   0  0  0  0  0  0  0  0  0  0  0  0
   -3.4348   -0.3795   -2.3474 H   0  0  0  0  0  0  0  0  0  0  0  0
   -3.5473    1.3377   -1.8229 H   0  0  0  0  0  0  0  0  0  0  0  0
   -1.0062   -0.5572   -3.2253 H   0  0  0  0  0  0  0  0  0  0  0  0
    0.4370    0.3799   -2.8214 H   0  0  0  0  0  0  0  0  0  0  0  0
   -1.1017    1.2109   -3.0672 H   0  0  0  0  0  0  0  0  0  0  0  0
    3.8166   -3.7687    0.7306 H   0  0  0  0  0  0  0  0  0  0  0  0
 32  1  1  0
  1  2  2  0
  2 33  1  0
  2  3  1  0
  3  4  1  0
  4  5  2  0
  5 34  1  0
  5  6  1  0
  6 35  1  0
  6  7  2  0
  7  8  1  0
  8  9  1  0
  9 10  1  0
 10 36  1  0
 10 37  1  0
 10 11  1  0
 11 38  1  0
 11 12  1  0
 12 39  1  0
 12 40  1  0
 12 41  1  0
 11 13  1  0
 13 42  1  0
 13 43  1  0
 13 44  1  0
  9 14  2  0
  7 15  1  0
 14 15  1  0
 15 45  1  0
  4 16  1  0
  8 16  2  0
 16 46  1  0
  3 17  2  0
 17 18  1  0
 18 19  1  0
 19 47  1  0
 19 48  1  0
 19 20  1  0
 20 49  1  0
 20 50  1  0
 20 21  1  0
 21 22  1  0
 22 23  1  0
 23 51  1  0
 23 52  1  0
 23 53  1  0
 22 24  2  0
 24 25  1  0
 25 26  1  0
 26 54  1  0
 26 55  1  0
 26 56  1  0
 21 27  2  0
 25 27  1  0
 27 28  1  0
 28 57  1  0
 28 58  1  0
 28 59  1  0
 17 29  1  0
 29 60  1  0
  1 30  1  0
 29 30  2  0
 30 31  1  0
M  CHG  1  11   1
M  END
>  <conformer_energy>  (1) 
80.22

>  <ligand_smiles>  (1) 
Cc1nn(C)c(C)c1CCOc1cc(F)ccc1-c1ccc2[nH]nc(C[NH+](C)C)c2c1

>  <ligand_conf_name>  (1) 
MOL_0_isomer_0_conf_0

>  <ligand_molecule_name>  (1) 
MOL_0_isomer_0

$$$$
