MOL_0_isomer_0_conf_0
     RDKit          3D

 55 57  0  0  0  0  0  0  0  0999 V2000
   10.1261   -0.5767   -1.4042 C   0  0  0  0  0  0  0  0  0  0  0  0
    9.7107    0.4954   -1.8406 O   0  0  0  0  0  0  0  0  0  0  0  0
   10.4401   -0.8159   -0.0767 N   0  0  0  0  0  0  0  0  0  0  0  0
   10.8316   -2.0600    0.4642 C   0  0  0  0  0  0  0  0  0  0  0  0
   11.2752   -2.1695    1.7485 C   0  0  0  0  0  0  0  0  0  0  0  0
   11.6075   -3.3572    2.3509 N   0  0  0  0  0  0  0  0  0  0  0  0
   11.4770   -4.4540    1.6856 C   0  0  0  0  0  0  0  0  0  0  0  0
   11.7583   -5.6430    2.2572 N   0  0  0  0  0  0  0  0  0  0  0  0
   11.0633   -4.4766    0.3989 N   0  0  0  0  0  0  0  0  0  0  0  0
   10.7665   -3.3461   -0.3014 C   0  0  0  0  0  0  0  0  0  0  0  0
   10.4789   -3.4407   -1.4904 O   0  0  0  0  0  0  0  0  0  0  0  0
   11.4188   -1.0327    2.5218 N   0  0  0  0  0  0  0  0  0  0  0  0
   11.2865    0.3049    1.9944 C   0  0  0  0  0  0  0  0  0  0  0  0
   10.2333    0.3173    0.8734 C   0  0  2  0  0  0  0  0  0  0  0  0
    8.8041    0.3019    1.4764 C   0  0  0  0  0  0  0  0  0  0  0  0
    7.7881    0.5567    0.4667 N   0  0  0  0  0  0  0  0  0  0  0  0
    6.4292    0.5295    0.7211 C   0  0  0  0  0  0  0  0  0  0  0  0
    5.8884    0.2972    1.9908 C   0  0  0  0  0  0  0  0  0  0  0  0
    4.5034    0.2704    2.1972 C   0  0  0  0  0  0  0  0  0  0  0  0
    3.6227    0.4672    1.1302 C   0  0  0  0  0  0  0  0  0  0  0  0
    2.1556    0.4287    1.4008 C   0  0  0  0  0  0  0  0  0  0  0  0
    1.7530    0.6636    2.5360 O   0  0  0  0  0  0  0  0  0  0  0  0
    1.3675    0.0790    0.3394 N   0  0  0  0  0  0  0  0  0  0  0  0
   -0.1040   -0.0652    0.3663 C   0  0  2  0  0  0  0  0  0  0  0  0
   -0.5368   -1.3920   -0.3614 C   0  0  0  0  0  0  0  0  0  0  0  0
   -1.6344   -1.9067    0.0002 O   0  0  0  0  0  0  0  0  0  0  0  0
    0.3123   -1.8309   -1.2059 O   0  0  0  0  0  1  0  0  0  0  0  0
   -0.7809    1.1070   -0.3702 C   0  0  0  0  0  0  0  0  0  0  0  0
   -0.5945    2.4566    0.3340 C   0  0  0  0  0  0  0  0  0  0  0  0
   -1.2490    3.6765   -0.3261 C   0  0  0  0  0  0  0  0  0  0  0  0
   -1.6980    3.5318   -1.4972 O   0  0  0  0  0  0  0  0  0  0  0  0
   -1.2515    4.7249    0.3891 O   0  0  0  0  0  1  0  0  0  0  0  0
    4.1459    0.7170   -0.1406 C   0  0  0  0  0  0  0  0  0  0  0  0
    5.5339    0.7437   -0.3363 C   0  0  0  0  0  0  0  0  0  0  0  0
   10.3021   -1.4073   -2.0917 H   0  0  0  0  0  0  0  0  0  0  0  0
   12.0341   -5.6360    3.2308 H   0  0  0  0  0  0  0  0  0  0  0  0
   11.6049   -6.5306    1.8062 H   0  0  0  0  0  0  0  0  0  0  0  0
   10.9830   -5.3412   -0.1080 H   0  0  0  0  0  0  0  0  0  0  0  0
   11.7895   -1.1963    3.4503 H   0  0  0  0  0  0  0  0  0  0  0  0
   11.0352    1.0090    2.7944 H   0  0  0  0  0  0  0  0  0  0  0  0
   12.2565    0.6101    1.5837 H   0  0  0  0  0  0  0  0  0  0  0  0
   10.3537    1.2613    0.3256 H   0  0  0  0  0  0  0  0  0  0  0  0
    8.6141   -0.6679    1.9517 H   0  0  0  0  0  0  0  0  0  0  0  0
    8.7352    1.0777    2.2487 H   0  0  0  0  0  0  0  0  0  0  0  0
    8.0904    0.7434   -0.4900 H   0  0  0  0  0  0  0  0  0  0  0  0
    6.5281    0.1324    2.8508 H   0  0  0  0  0  0  0  0  0  0  0  0
    4.1072    0.0899    3.1939 H   0  0  0  0  0  0  0  0  0  0  0  0
    1.7566   -0.3307   -0.5036 H   0  0  0  0  0  0  0  0  0  0  0  0
   -0.4361   -0.1085    1.4098 H   0  0  0  0  0  0  0  0  0  0  0  0
   -1.8556    0.9077   -0.4701 H   0  0  0  0  0  0  0  0  0  0  0  0
   -0.3861    1.1758   -1.3926 H   0  0  0  0  0  0  0  0  0  0  0  0
   -0.9862    2.3803    1.3562 H   0  0  0  0  0  0  0  0  0  0  0  0
    0.4749    2.6859    0.4140 H   0  0  0  0  0  0  0  0  0  0  0  0
    3.4874    0.9122   -0.9835 H   0  0  0  0  0  0  0  0  0  0  0  0
    5.9094    0.9387   -1.3381 H   0  0  0  0  0  0  0  0  0  0  0  0
 35  1  1  0
  1  2  2  0
  1  3  1  0
  3  4  1  0
  4  5  2  0
  5  6  1  0
  6  7  2  0
  7  8  1  0
  8 36  1  0
  8 37  1  0
  7  9  1  0
  9 38  1  0
  4 10  1  0
  9 10  1  0
 10 11  2  0
  5 12  1  0
 12 39  1  0
 12 13  1  0
 13 40  1  0
 13 41  1  0
  3 14  1  0
 13 14  1  0
 14 42  1  6
 14 15  1  0
 15 43  1  0
 15 44  1  0
 15 16  1  0
 16 45  1  0
 16 17  1  0
 17 18  2  0
 18 46  1  0
 18 19  1  0
 19 47  1  0
 19 20  2  0
 20 21  1  0
 21 22  2  0
 21 23  1  0
 23 48  1  0
 23 24  1  0
 24 49  1  1
 24 25  1  0
 25 26  2  0
 25 27  1  0
 24 28  1  0
 28 50  1  0
 28 51  1  0
 28 29  1  0
 29 52  1  0
 29 53  1  0
 29 30  1  0
 30 31  2  0
 30 32  1  0
 20 33  1  0
 33 54  1  0
 17 34  1  0
 33 34  2  0
 34 55  1  0
M  CHG  2  27  -1  32  -1
M  END
>  <conformer_energy>  (1) 
41.10

>  <ligand_smiles>  (1) 
Nc1nc2c(c(=O)[nH]1)N(C=O)[C@@H](CNc1ccc(C(=O)N[C@@H](CCC(=O)[O-])C(=O)[O-])cc1)CN2

>  <ligand_conf_name>  (1) 
MOL_0_isomer_0_conf_0

>  <ligand_molecule_name>  (1) 
MOL_0_isomer_0

$$$$
