1OWE - prepared_ligand_conf_0
     RDKit          3D

 38 40  0  0  0  0  0  0  0  0999 V2000
   12.5955    1.4554    2.8819 C   0  0  0  0  0  0  0  0  0  0  0  0
   11.6415    1.5830    3.8872 C   0  0  0  0  0  0  0  0  0  0  0  0
   10.2832    1.4657    3.5799 C   0  0  0  0  0  0  0  0  0  0  0  0
    9.8651    1.2178    2.2652 C   0  0  0  0  0  0  0  0  0  0  0  0
    8.4749    1.1186    2.0390 N   0  0  0  0  0  0  0  0  0  0  0  0
    7.8411    0.8275    0.8459 C   0  0  0  0  0  0  0  0  0  0  0  0
    8.3662    0.5213   -0.2174 O   0  0  0  0  0  0  0  0  0  0  0  0
    6.3518    0.8585    0.8954 C   0  0  0  0  0  0  0  0  0  0  0  0
    5.6534    1.7867    1.6730 C   0  0  0  0  0  0  0  0  0  0  0  0
    4.2548    1.7919    1.6645 C   0  0  0  0  0  0  0  0  0  0  0  0
    3.5353    0.8800    0.8733 C   0  0  0  0  0  0  0  0  0  0  0  0
    2.1294    0.8789    0.8445 C   0  0  0  0  0  0  0  0  0  0  0  0
    1.4184   -0.0236    0.0359 C   0  0  0  0  0  0  0  0  0  0  0  0
   -0.0493   -0.0043    0.0057 C   0  0  0  0  0  0  0  0  0  0  0  0
   -0.6657    0.1281   -1.1484 N   0  0  0  0  0  0  0  0  0  0  0  0
   -0.7176   -0.1232    1.1321 N   0  0  0  0  0  0  0  0  0  0  0  0
    2.1325   -0.9387   -0.7473 C   0  0  0  0  0  0  0  0  0  0  0  0
    3.5286   -0.9511   -0.7254 C   0  0  0  0  0  0  0  0  0  0  0  0
    4.2415   -0.0487    0.0763 C   0  0  0  0  0  0  0  0  0  0  0  0
    5.6441   -0.0473    0.0943 C   0  0  0  0  0  0  0  0  0  0  0  0
   10.8303    1.0945    1.2645 C   0  0  0  0  0  0  0  0  0  0  0  0
   12.1899    1.2120    1.5722 C   0  0  0  0  0  0  0  0  0  0  0  0
   13.6531    1.5456    3.1164 H   0  0  0  0  0  0  0  0  0  0  0  0
   11.9549    1.7733    4.9105 H   0  0  0  0  0  0  0  0  0  0  0  0
    9.5623    1.5691    4.3860 H   0  0  0  0  0  0  0  0  0  0  0  0
    7.8966    1.2366    2.8592 H   0  0  0  0  0  0  0  0  0  0  0  0
    6.1797    2.5354    2.2603 H   0  0  0  0  0  0  0  0  0  0  0  0
    3.7353    2.5313    2.2719 H   0  0  0  0  0  0  0  0  0  0  0  0
    1.5885    1.6093    1.4454 H   0  0  0  0  0  0  0  0  0  0  0  0
   -0.1236    0.2448   -1.9997 H   0  0  0  0  0  0  0  0  0  0  0  0
   -1.6728    0.1459   -1.2326 H   0  0  0  0  0  0  0  0  0  0  0  0
   -0.2166   -0.2507    2.0061 H   0  0  0  0  0  0  0  0  0  0  0  0
   -1.7277   -0.1205    1.1701 H   0  0  0  0  0  0  0  0  0  0  0  0
    1.6169   -1.6635   -1.3754 H   0  0  0  0  0  0  0  0  0  0  0  0
    4.0633   -1.6733   -1.3428 H   0  0  0  0  0  0  0  0  0  0  0  0
    6.2028   -0.7508   -0.5234 H   0  0  0  0  0  0  0  0  0  0  0  0
   10.5615    0.9094    0.2294 H   0  0  0  0  0  0  0  0  0  0  0  0
   12.9310    1.1128    0.7827 H   0  0  0  0  0  0  0  0  0  0  0  0
 23  1  1  0
  1  2  2  0
  2 24  1  0
  2  3  1  0
  3 25  1  0
  3  4  2  0
  4  5  1  0
  5 26  1  0
  5  6  1  0
  6  7  2  0
  6  8  1  0
  8  9  2  0
  9 27  1  0
  9 10  1  0
 10 28  1  0
 10 11  2  0
 11 12  1  0
 12 29  1  0
 12 13  2  0
 13 14  1  0
 14 15  1  0
 15 30  1  0
 15 31  1  0
 14 16  2  0
 16 32  1  0
 16 33  1  0
 13 17  1  0
 17 34  1  0
 17 18  2  0
 18 35  1  0
 11 19  1  0
 18 19  1  0
  8 20  1  0
 19 20  2  0
 20 36  1  0
  4 21  1  0
 21 37  1  0
  1 22  1  0
 21 22  2  0
 22 38  1  0
M  CHG  1  16   1
M  END
>  <conformer_energy>  (1) 
23.31

>  <ligand_smiles>  (1) 
NC(=[NH2+])c1ccc2cc(C(=O)Nc3ccccc3)ccc2c1

>  <ligand_conf_name>  (1) 
1OWE - prepared_ligand_conf_0

>  <ligand_molecule_name>  (1) 
1OWE - prepared_ligand

$$$$
