MOL_0_isomer_0_chiral_N_isomer_0_conf_0
     RDKit          3D

 46 49  0  0  0  0  0  0  0  0999 V2000
    6.0947    7.3945   -3.0672 C   0  0  0  0  0  0  0  0  0  0  0  0
    6.6834    7.9347   -1.9202 C   0  0  0  0  0  0  0  0  0  0  0  0
    6.0877    7.7776   -0.6601 C   0  0  0  0  0  0  0  0  0  0  0  0
    4.8801    7.0632   -0.5703 C   0  0  0  0  0  0  0  0  0  0  0  0
    3.9960    6.6913    0.4701 C   0  0  0  0  0  0  0  0  0  0  0  0
    2.9467    5.9720   -0.0944 C   0  0  0  0  0  0  0  0  0  0  0  0
    1.5072    5.2099    0.6781 S   0  0  0  0  0  6  0  0  0  0  0  0
    0.4356    5.4186   -0.2728 O   0  0  0  0  0  0  0  0  0  0  0  0
    1.4880    5.7976    2.0006 O   0  0  0  0  0  0  0  0  0  0  0  0
    1.8560    3.5765    0.7947 N   0  0  0  0  0  0  0  0  0  0  0  0
    1.7750    2.8287   -0.4602 C   0  0  0  0  0  0  0  0  0  0  0  0
    2.3815    1.4835   -0.2234 C   0  0  0  0  0  0  0  0  0  0  0  0
    3.6712    1.0571   -0.4847 C   0  0  0  0  0  0  0  0  0  0  0  0
    3.7996   -0.2838   -0.0421 C   0  0  0  0  0  0  0  0  0  0  0  0
    4.8592   -1.2135   -0.0364 C   0  0  0  0  0  0  0  0  0  0  0  0
    4.6749   -2.4866    0.5187 C   0  0  0  0  0  0  0  0  0  0  0  0
    5.7797   -3.2966    0.4595 O   0  0  0  0  0  0  0  0  0  0  0  0
    5.6518   -4.5883    1.0371 C   0  0  0  0  0  0  0  0  0  0  0  0
    3.4429   -2.8276    1.0727 C   0  0  0  0  0  0  0  0  0  0  0  0
    2.3740   -1.9216    1.0744 C   0  0  0  0  0  0  0  0  0  0  0  0
    2.5707   -0.6568    0.4993 C   0  0  0  0  0  0  0  0  0  0  0  0
    1.7080    0.4179    0.3483 N   0  0  0  0  0  0  0  0  0  0  0  0
    0.2897    0.3746    0.6754 C   0  0  0  0  0  0  0  0  0  0  0  0
    0.0267    0.9025    2.0737 C   0  0  0  0  0  0  0  0  0  0  0  0
    0.1716    2.1560    2.2145 O   0  0  0  0  0  0  0  0  0  0  0  0
   -0.3592    0.0441    2.9172 O   0  0  0  0  0  1  0  0  0  0  0  0
    3.1700    5.8886   -1.4558 O   0  0  0  0  0  0  0  0  0  0  0  0
    4.3268    6.5433   -1.7307 C   0  0  0  0  0  0  0  0  0  0  0  0
    4.8930    6.6815   -2.9959 C   0  0  0  0  0  0  0  0  0  0  0  0
    6.5782    7.5273   -4.0323 H   0  0  0  0  0  0  0  0  0  0  0  0
    7.6186    8.4845   -2.0031 H   0  0  0  0  0  0  0  0  0  0  0  0
    6.5523    8.1972    0.2268 H   0  0  0  0  0  0  0  0  0  0  0  0
    4.0861    6.9049    1.5266 H   0  0  0  0  0  0  0  0  0  0  0  0
    1.2342    3.1366    1.5173 H   0  0  0  0  0  0  0  0  0  0  0  0
    0.7379    2.7459   -0.7970 H   0  0  0  0  0  0  0  0  0  0  0  0
    2.3445    3.3331   -1.2481 H   0  0  0  0  0  0  0  0  0  0  0  0
    4.4493    1.6646   -0.9264 H   0  0  0  0  0  0  0  0  0  0  0  0
    5.8221   -0.9381   -0.4534 H   0  0  0  0  0  0  0  0  0  0  0  0
    6.6091   -5.1047    0.9153 H   0  0  0  0  0  0  0  0  0  0  0  0
    4.8890   -5.1801    0.5200 H   0  0  0  0  0  0  0  0  0  0  0  0
    5.4434   -4.5250    2.1103 H   0  0  0  0  0  0  0  0  0  0  0  0
    3.2681   -3.7963    1.5277 H   0  0  0  0  0  0  0  0  0  0  0  0
    1.4249   -2.1871    1.5324 H   0  0  0  0  0  0  0  0  0  0  0  0
   -0.2591    0.9636   -0.0653 H   0  0  0  0  0  0  0  0  0  0  0  0
   -0.0609   -0.6572    0.5662 H   0  0  0  0  0  0  0  0  0  0  0  0
    4.4211    6.2544   -3.8722 H   0  0  0  0  0  0  0  0  0  0  0  0
 30  1  1  0
  1  2  2  0
  2 31  1  0
  2  3  1  0
  3 32  1  0
  3  4  2  0
  4  5  1  0
  5 33  1  0
  5  6  2  0
  6  7  1  0
  7  8  2  0
  7  9  2  0
  7 10  1  0
 10 34  1  6
 10 11  1  0
 11 35  1  0
 11 36  1  0
 11 12  1  0
 12 13  2  0
 13 37  1  0
 13 14  1  0
 14 15  2  0
 15 38  1  0
 15 16  1  0
 16 17  1  0
 17 18  1  0
 18 39  1  0
 18 40  1  0
 18 41  1  0
 16 19  2  0
 19 42  1  0
 19 20  1  0
 20 43  1  0
 14 21  1  0
 20 21  2  0
 12 22  1  0
 21 22  1  0
 22 23  1  0
 23 44  1  0
 23 45  1  0
 23 24  1  0
 24 25  2  0
 24 26  1  0
  6 27  1  0
  4 28  1  0
 27 28  1  0
  1 29  1  0
 28 29  2  0
 29 46  1  0
M  CHG  1  26  -1
M  END
>  <conformer_energy>  (1) 
-17.15

>  <ligand_smiles>  (1) 
COc1ccc2c(c1)cc(CNS(=O)(=O)c1cc3ccccc3o1)n2CC(=O)[O-]

>  <ligand_conf_name>  (1) 
MOL_0_isomer_0_chiral_N_isomer_0_conf_0

>  <ligand_molecule_name>  (1) 
MOL_0_isomer_0_chiral_N_isomer_0

$$$$
MOL_0_isomer_0_chiral_N_isomer_1_conf_0
     RDKit          3D

 46 49  0  0  0  0  0  0  0  0999 V2000
    0.3885    7.4200   -6.6215 C   0  0  0  0  0  0  0  0  0  0  0  0
    1.5075    6.6559   -6.9642 C   0  0  0  0  0  0  0  0  0  0  0  0
    2.0848    5.7673   -6.0449 C   0  0  0  0  0  0  0  0  0  0  0  0
    1.5136    5.6572   -4.7643 C   0  0  0  0  0  0  0  0  0  0  0  0
    1.7808    4.9067   -3.5935 C   0  0  0  0  0  0  0  0  0  0  0  0
    0.8308    5.2508   -2.6380 C   0  0  0  0  0  0  0  0  0  0  0  0
    0.6198    4.6558   -0.9576 S   0  0  0  0  0  6  0  0  0  0  0  0
   -0.7874    4.8129   -0.6684 O   0  0  0  0  0  0  0  0  0  0  0  0
    1.6606    5.3226   -0.2070 O   0  0  0  0  0  0  0  0  0  0  0  0
    0.9493    3.0059   -1.0290 N   0  0  0  0  0  0  0  0  0  0  0  0
    1.1581    2.3692    0.2831 C   0  0  0  0  0  0  0  0  0  0  0  0
    1.6970    1.0090   -0.0178 C   0  0  0  0  0  0  0  0  0  0  0  0
    3.0031    0.6393   -0.2877 C   0  0  0  0  0  0  0  0  0  0  0  0
    3.0452   -0.7658   -0.4689 C   0  0  0  0  0  0  0  0  0  0  0  0
    4.0752   -1.6855   -0.7524 C   0  0  0  0  0  0  0  0  0  0  0  0
    3.7892   -3.0535   -0.8511 C   0  0  0  0  0  0  0  0  0  0  0  0
    4.8757   -3.8424   -1.1314 O   0  0  0  0  0  0  0  0  0  0  0  0
    4.6239   -5.2317   -1.3012 C   0  0  0  0  0  0  0  0  0  0  0  0
    2.4847   -3.5031   -0.6572 C   0  0  0  0  0  0  0  0  0  0  0  0
    1.4439   -2.6069   -0.3802 C   0  0  0  0  0  0  0  0  0  0  0  0
    1.7455   -1.2387   -0.3006 C   0  0  0  0  0  0  0  0  0  0  0  0
    0.9320   -0.1426   -0.0559 N   0  0  0  0  0  0  0  0  0  0  0  0
   -0.5200   -0.2135    0.0226 C   0  0  0  0  0  0  0  0  0  0  0  0
   -0.9836   -0.5464    1.4289 C   0  0  0  0  0  0  0  0  0  0  0  0
   -1.3872   -1.7340    1.5990 O   0  0  0  0  0  0  0  0  0  0  0  0
   -0.9722    0.4196    2.2457 O   0  0  0  0  0  1  0  0  0  0  0  0
   -0.0095    6.1957   -3.1911 O   0  0  0  0  0  0  0  0  0  0  0  0
    0.4042    6.4318   -4.4623 C   0  0  0  0  0  0  0  0  0  0  0  0
   -0.1916    7.3233   -5.3514 C   0  0  0  0  0  0  0  0  0  0  0  0
   -0.0407    8.1020   -7.3525 H   0  0  0  0  0  0  0  0  0  0  0  0
    1.9384    6.7498   -7.9594 H   0  0  0  0  0  0  0  0  0  0  0  0
    2.9543    5.1773   -6.3199 H   0  0  0  0  0  0  0  0  0  0  0  0
    2.5712    4.1854   -3.4364 H   0  0  0  0  0  0  0  0  0  0  0  0
    0.1979    2.5237   -1.5244 H   0  0  0  0  0  0  0  0  0  0  0  0
    1.9012    2.9225    0.8684 H   0  0  0  0  0  0  0  0  0  0  0  0
    0.2234    2.3395    0.8475 H   0  0  0  0  0  0  0  0  0  0  0  0
    3.8429    1.3189   -0.3332 H   0  0  0  0  0  0  0  0  0  0  0  0
    5.0928   -1.3334   -0.8860 H   0  0  0  0  0  0  0  0  0  0  0  0
    5.5710   -5.7157   -1.5632 H   0  0  0  0  0  0  0  0  0  0  0  0
    3.9227   -5.4103   -2.1241 H   0  0  0  0  0  0  0  0  0  0  0  0
    4.2702   -5.6816   -0.3673 H   0  0  0  0  0  0  0  0  0  0  0  0
    2.2285   -4.5560   -0.7003 H   0  0  0  0  0  0  0  0  0  0  0  0
    0.4334   -2.9682   -0.2037 H   0  0  0  0  0  0  0  0  0  0  0  0
   -0.9405    0.7426   -0.3034 H   0  0  0  0  0  0  0  0  0  0  0  0
   -0.8628   -0.9629   -0.6999 H   0  0  0  0  0  0  0  0  0  0  0  0
   -1.0587    7.9068   -5.0653 H   0  0  0  0  0  0  0  0  0  0  0  0
 30  1  1  0
  1  2  2  0
  2 31  1  0
  2  3  1  0
  3 32  1  0
  3  4  2  0
  4  5  1  0
  5 33  1  0
  5  6  2  0
  6  7  1  0
  7  8  2  0
  7  9  2  0
  7 10  1  0
 10 34  1  6
 10 11  1  0
 11 35  1  0
 11 36  1  0
 11 12  1  0
 12 13  2  0
 13 37  1  0
 13 14  1  0
 14 15  2  0
 15 38  1  0
 15 16  1  0
 16 17  1  0
 17 18  1  0
 18 39  1  0
 18 40  1  0
 18 41  1  0
 16 19  2  0
 19 42  1  0
 19 20  1  0
 20 43  1  0
 14 21  1  0
 20 21  2  0
 12 22  1  0
 21 22  1  0
 22 23  1  0
 23 44  1  0
 23 45  1  0
 23 24  1  0
 24 25  2  0
 24 26  1  0
  6 27  1  0
  4 28  1  0
 27 28  1  0
  1 29  1  0
 28 29  2  0
 29 46  1  0
M  CHG  1  26  -1
M  END
>  <conformer_energy>  (2) 
-4.74

>  <ligand_smiles>  (2) 
COc1ccc2c(c1)cc(CNS(=O)(=O)c1cc3ccccc3o1)n2CC(=O)[O-]

>  <ligand_conf_name>  (2) 
MOL_0_isomer_0_chiral_N_isomer_1_conf_0

>  <ligand_molecule_name>  (2) 
MOL_0_isomer_0_chiral_N_isomer_1

$$$$
