MOL_0_isomer_0_conf_0
     RDKit          3D

 25 26  0  0  0  0  0  0  0  0999 V2000
    1.9634   -1.8904    1.8596 C   0  0  0  0  0  0  0  0  0  0  0  0
    2.4831   -3.1137    2.1071 N   0  0  0  0  0  0  0  0  0  0  0  0
    3.1537   -3.6967    1.0950 C   0  0  0  0  0  0  0  0  0  0  0  0
    3.7928   -5.2464    1.4540 Cl  0  0  0  0  0  0  0  0  0  0  0  0
    3.3355   -3.1258   -0.1523 C   0  0  0  0  0  0  0  0  0  0  0  0
    2.7910   -1.8640   -0.3783 C   0  0  0  0  0  0  0  0  0  0  0  0
    2.0885   -1.2184    0.6458 C   0  0  0  0  0  0  0  0  0  0  0  0
    1.4729    0.1405    0.4484 C   0  0  0  0  0  0  0  0  0  0  0  0
    0.0491    0.0433    0.1891 N   0  0  0  0  0  0  0  0  0  0  0  0
   -0.9147    0.1981    1.1598 C   0  0  0  0  0  0  0  0  0  0  0  0
   -0.6797    0.4895    2.3956 N   0  0  0  0  0  0  0  0  0  0  0  0
   -1.6989    0.6218    3.2502 C   0  0  0  0  0  0  0  0  0  0  0  0
   -2.5596    0.7485    4.0162 N   0  0  0  0  0  0  0  0  0  0  0  0
   -2.5150   -0.0598    0.4510 S   0  0  0  0  0  0  0  0  0  0  0  0
   -1.8672    0.0136   -1.2424 C   0  0  0  0  0  0  0  0  0  0  0  0
   -0.4152   -0.4267   -1.1088 C   0  0  0  0  0  0  0  0  0  0  0  0
    1.4236   -1.4509    2.6960 H   0  0  0  0  0  0  0  0  0  0  0  0
    3.8857   -3.6449   -0.9285 H   0  0  0  0  0  0  0  0  0  0  0  0
    2.9197   -1.3922   -1.3492 H   0  0  0  0  0  0  0  0  0  0  0  0
    1.6807    0.7675    1.3247 H   0  0  0  0  0  0  0  0  0  0  0  0
    1.9638    0.6520   -0.3894 H   0  0  0  0  0  0  0  0  0  0  0  0
   -2.4339   -0.6262   -1.9237 H   0  0  0  0  0  0  0  0  0  0  0  0
   -1.9271    1.0494   -1.5918 H   0  0  0  0  0  0  0  0  0  0  0  0
   -0.3449   -1.5205   -1.1531 H   0  0  0  0  0  0  0  0  0  0  0  0
    0.1844   -0.0177   -1.9293 H   0  0  0  0  0  0  0  0  0  0  0  0
 17  1  1  0
  1  2  2  0
  2  3  1  0
  3  4  1  0
  3  5  2  0
  5 18  1  0
  5  6  1  0
  6 19  1  0
  1  7  1  0
  6  7  2  0
  7  8  1  0
  8 20  1  0
  8 21  1  0
  8  9  1  0
  9 10  1  0
 10 11  2  0
 11 12  1  0
 12 13  3  0
 10 14  1  0
 14 15  1  0
 15 22  1  0
 15 23  1  0
  9 16  1  0
 15 16  1  0
 16 24  1  0
 16 25  1  0
M  END
>  <conformer_energy>  (1) 
-35.52

>  <ligand_smiles>  (1) 
N#C/N=C1\SCCN1Cc1ccc(Cl)nc1

>  <ligand_conf_name>  (1) 
MOL_0_isomer_0_conf_0

>  <ligand_molecule_name>  (1) 
MOL_0_isomer_0

$$$$
