MOL_0_isomer_0_conf_0
     RDKit          3D

 24 24  0  0  0  0  0  0  0  0999 V2000
   -0.5863    0.2177    1.2611 O   0  0  0  0  0  0  0  0  0  0  0  0
    0.0014    0.0998   -0.0421 C   0  0  0  0  0  0  0  0  0  0  0  0
    1.5338   -0.0988    0.0576 C   0  0  1  0  0  0  0  0  0  0  0  0
    2.0487    0.9480    0.8963 O   0  0  0  0  0  0  0  0  0  0  0  0
    1.8994   -1.2991    0.7345 O   0  0  0  0  0  0  0  0  0  0  0  0
    1.6384   -2.4841   -0.0170 C   0  0  0  0  0  0  0  0  0  0  0  0
    2.3749   -2.4945   -1.3575 C   0  0  1  0  0  0  0  0  0  0  0  0
    1.9942   -3.6483   -2.1136 O   0  0  0  0  0  0  0  0  0  0  0  0
    2.0728   -1.2268   -2.1700 C   0  0  1  0  0  0  0  0  0  0  0  0
    0.7344   -1.3114   -2.6853 O   0  0  0  0  0  0  0  0  0  0  0  0
    2.2500    0.0264   -1.3130 C   0  0  2  0  0  0  0  0  0  0  0  0
    3.6610    0.2344   -1.1074 O   0  0  0  0  0  0  0  0  0  0  0  0
   -0.1297    0.9615    1.6950 H   0  0  0  0  0  0  0  0  0  0  0  0
   -0.5017   -0.7289   -0.5430 H   0  0  0  0  0  0  0  0  0  0  0  0
   -0.2334    1.0252   -0.5787 H   0  0  0  0  0  0  0  0  0  0  0  0
    2.0835    0.5007    1.7644 H   0  0  0  0  0  0  0  0  0  0  0  0
    1.9727   -3.3376    0.5839 H   0  0  0  0  0  0  0  0  0  0  0  0
    0.5597   -2.6265   -0.1465 H   0  0  0  0  0  0  0  0  0  0  0  0
    3.4532   -2.5511   -1.1685 H   0  0  0  0  0  0  0  0  0  0  0  0
    1.1380   -3.4199   -2.5279 H   0  0  0  0  0  0  0  0  0  0  0  0
    2.7455   -1.2074   -3.0364 H   0  0  0  0  0  0  0  0  0  0  0  0
    0.7046   -0.7516   -3.4846 H   0  0  0  0  0  0  0  0  0  0  0  0
    1.8812    0.9135   -1.8406 H   0  0  0  0  0  0  0  0  0  0  0  0
    3.7206    0.7846   -0.2983 H   0  0  0  0  0  0  0  0  0  0  0  0
 13  1  1  0
  1  2  1  0
  2 14  1  0
  2 15  1  0
  2  3  1  0
  3  4  1  1
  4 16  1  0
  3  5  1  0
  5  6  1  0
  6 17  1  0
  6 18  1  0
  6  7  1  0
  7 19  1  1
  7  8  1  0
  8 20  1  0
  7  9  1  0
  9 21  1  6
  9 10  1  0
 10 22  1  0
  3 11  1  0
  9 11  1  0
 11 23  1  6
 11 12  1  0
 12 24  1  0
M  END
>  <conformer_energy>  (1) 
109.18

>  <ligand_smiles>  (1) 
OC[C@@]1(O)OC[C@@H](O)[C@@H](O)[C@@H]1O

>  <ligand_conf_name>  (1) 
MOL_0_isomer_0_conf_0

>  <ligand_molecule_name>  (1) 
MOL_0_isomer_0

$$$$
