MOL_0_isomer_0_conf_0
     RDKit          3D

 53 55  0  0  0  0  0  0  0  0999 V2000
    3.3102    6.4699   -6.4892 O   0  0  0  0  0  0  0  0  0  0  0  0
    2.4162    5.4562   -7.0528 C   0  0  0  0  0  0  0  0  0  0  0  0
    2.3963    4.3041   -6.0322 C   0  0  0  0  0  0  0  0  0  0  0  0
    2.5225    2.9536   -6.3871 C   0  0  0  0  0  0  0  0  0  0  0  0
    2.4917    1.9454   -5.4130 C   0  0  0  0  0  0  0  0  0  0  0  0
    2.3354    2.2530   -4.0579 C   0  0  0  0  0  0  0  0  0  0  0  0
    2.3136    1.1741   -3.1496 N   0  0  0  0  0  0  0  0  0  0  0  0
    2.1946    1.2387   -1.7637 C   0  0  0  0  0  0  0  0  0  0  0  0
    2.1221    2.2692   -1.0990 O   0  0  0  0  0  0  0  0  0  0  0  0
    2.1913   -0.1647   -1.1061 C   0  0  1  0  0  0  0  0  0  0  0  0
    3.5507   -0.4900   -0.5371 C   0  0  0  0  0  0  0  0  0  0  0  0
    4.7530   -0.6808   -1.2037 C   0  0  0  0  0  0  0  0  0  0  0  0
    5.8924   -0.9646   -0.4468 C   0  0  0  0  0  0  0  0  0  0  0  0
    5.8077   -1.0437    0.9555 C   0  0  0  0  0  0  0  0  0  0  0  0
    7.2692   -1.4165    1.8991 S   0  0  0  0  0  6  0  0  0  0  0  0
    8.2402   -1.9958    0.9901 O   0  0  0  0  0  0  0  0  0  0  0  0
    6.8458   -2.1299    3.0886 O   0  0  0  0  0  0  0  0  0  0  0  0
    7.8576    0.1841    2.3874 C   0  0  0  0  0  0  0  0  0  0  0  0
    4.5917   -0.8693    1.6247 C   0  0  0  0  0  0  0  0  0  0  0  0
    3.4721   -0.5890    0.8599 C   0  0  0  0  0  0  0  0  0  0  0  0
    2.0687   -0.3545    1.3214 C   0  0  0  0  0  0  0  0  0  0  0  0
    1.3177   -0.2183    0.0786 N   0  0  0  0  0  0  0  0  0  0  0  0
   -0.0546   -0.2206    0.1003 C   0  0  0  0  0  0  0  0  0  0  0  0
   -0.6933   -0.3271    1.1466 O   0  0  0  0  0  0  0  0  0  0  0  0
   -0.7640   -0.0839   -1.2221 C   0  0  0  0  0  0  0  0  0  0  0  0
    2.2054    3.5893   -3.6931 C   0  0  0  0  0  0  0  0  0  0  0  0
    2.2338    4.5980   -4.6649 C   0  0  0  0  0  0  0  0  0  0  0  0
    1.0059    6.0162   -7.2828 C   0  0  0  0  0  0  0  0  0  0  0  0
    0.9945    7.0548   -8.1492 F   0  0  0  0  0  0  0  0  0  0  0  0
    0.4491    6.4716   -6.1320 F   0  0  0  0  0  0  0  0  0  0  0  0
    0.1614    5.0789   -7.7758 F   0  0  0  0  0  0  0  0  0  0  0  0
    2.9030    5.0839   -8.4591 C   0  0  0  0  0  0  0  0  0  0  0  0
    4.1513    4.5442   -8.3914 F   0  0  0  0  0  0  0  0  0  0  0  0
    3.0042    6.1545   -9.2778 F   0  0  0  0  0  0  0  0  0  0  0  0
    2.1195    4.1755   -9.0792 F   0  0  0  0  0  0  0  0  0  0  0  0
    4.1721    6.0380   -6.3370 H   0  0  0  0  0  0  0  0  0  0  0  0
    2.6434    2.6365   -7.4214 H   0  0  0  0  0  0  0  0  0  0  0  0
    2.5917    0.9131   -5.7414 H   0  0  0  0  0  0  0  0  0  0  0  0
    2.3994    0.2545   -3.5644 H   0  0  0  0  0  0  0  0  0  0  0  0
    1.8696   -0.9375   -1.8115 H   0  0  0  0  0  0  0  0  0  0  0  0
    4.8230   -0.6126   -2.2849 H   0  0  0  0  0  0  0  0  0  0  0  0
    6.8433   -1.1264   -0.9521 H   0  0  0  0  0  0  0  0  0  0  0  0
    8.7680    0.0454    2.9745 H   0  0  0  0  0  0  0  0  0  0  0  0
    7.0956    0.6749    2.9958 H   0  0  0  0  0  0  0  0  0  0  0  0
    8.0784    0.7705    1.4935 H   0  0  0  0  0  0  0  0  0  0  0  0
    4.5204   -0.9573    2.7055 H   0  0  0  0  0  0  0  0  0  0  0  0
    1.6800   -1.1985    1.8995 H   0  0  0  0  0  0  0  0  0  0  0  0
    1.9799    0.5752    1.8919 H   0  0  0  0  0  0  0  0  0  0  0  0
   -1.8403   -0.2096   -1.0706 H   0  0  0  0  0  0  0  0  0  0  0  0
   -0.4272   -0.8524   -1.9218 H   0  0  0  0  0  0  0  0  0  0  0  0
   -0.5882    0.9096   -1.6412 H   0  0  0  0  0  0  0  0  0  0  0  0
    2.0729    3.8937   -2.6590 H   0  0  0  0  0  0  0  0  0  0  0  0
    2.1219    5.6312   -4.3311 H   0  0  0  0  0  0  0  0  0  0  0  0
 36  1  1  0
  1  2  1  0
  2  3  1  0
  3  4  2  0
  4 37  1  0
  4  5  1  0
  5 38  1  0
  5  6  2  0
  6  7  1  0
  7 39  1  0
  7  8  1  0
  8  9  2  0
  8 10  1  0
 10 40  1  6
 10 11  1  0
 11 12  2  0
 12 41  1  0
 12 13  1  0
 13 42  1  0
 13 14  2  0
 14 15  1  0
 15 16  2  0
 15 17  2  0
 15 18  1  0
 18 43  1  0
 18 44  1  0
 18 45  1  0
 14 19  1  0
 19 46  1  0
 11 20  1  0
 19 20  2  0
 20 21  1  0
 21 47  1  0
 21 48  1  0
 10 22  1  0
 21 22  1  0
 22 23  1  0
 23 24  2  0
 23 25  1  0
 25 49  1  0
 25 50  1  0
 25 51  1  0
  6 26  1  0
 26 52  1  0
  3 27  1  0
 26 27  2  0
 27 53  1  0
  2 28  1  0
 28 29  1  0
 28 30  1  0
 28 31  1  0
  2 32  1  0
 32 33  1  0
 32 34  1  0
 32 35  1  0
M  END
>  <conformer_energy>  (1) 
166.84

>  <ligand_smiles>  (1) 
CC(=O)N1Cc2cc(S(C)(=O)=O)ccc2[C@@H]1C(=O)Nc1ccc(C(O)(C(F)(F)F)C(F)(F)F)cc1

>  <ligand_conf_name>  (1) 
MOL_0_isomer_0_conf_0

>  <ligand_molecule_name>  (1) 
MOL_0_isomer_0

$$$$
