MOL_0_isomer_0_conf_0
     RDKit          3D

 55 59  0  0  0  0  0  0  0  0999 V2000
   -5.2446   -0.0326    0.1989 C   0  0  0  0  0  0  0  0  0  0  0  0
   -4.0703   -0.5850   -0.1379 N   0  0  0  0  0  0  0  0  0  0  0  0
   -4.1810   -0.7672   -1.5002 N   0  0  0  0  0  0  0  0  0  0  0  0
   -3.1458   -1.4162   -2.2200 C   0  0  0  0  0  0  0  0  0  0  0  0
   -2.2387   -2.2308   -1.5286 C   0  0  0  0  0  0  0  0  0  0  0  0
   -1.1536   -2.7947   -2.2001 C   0  0  0  0  0  0  0  0  0  0  0  0
   -0.9540   -2.5482   -3.5654 C   0  0  0  0  0  0  0  0  0  0  0  0
    0.2904   -3.0663   -4.2552 C   0  0  0  0  0  0  0  0  0  0  0  0
    1.1055   -1.9855   -4.7827 N   0  0  0  0  0  0  0  0  0  0  0  0
    1.7603   -1.1053   -3.9539 C   0  0  0  0  0  0  0  0  0  0  0  0
    1.6160   -1.1739   -2.6122 N   0  0  0  0  0  0  0  0  0  0  0  0
    2.2323   -0.2736   -1.8237 C   0  0  0  0  0  0  0  0  0  0  0  0
    1.8799   -0.4036   -0.0870 S   0  0  0  0  0  0  0  0  0  0  0  0
    0.1991    0.2804   -0.1292 C   0  0  0  0  0  0  0  0  0  0  0  0
   -0.5171   -0.0837    1.1668 C   0  0  0  0  0  0  0  0  0  0  0  0
   -1.9021    0.4482    1.1805 N   0  0  0  0  0  4  0  0  0  0  0  0
    3.0072    0.7449   -2.2077 N   0  0  0  0  0  0  0  0  0  0  0  0
    3.1723    0.8019   -3.5452 C   0  0  0  0  0  0  0  0  0  0  0  0
    3.9039    1.6853   -4.3668 C   0  0  0  0  0  0  0  0  0  0  0  0
    4.7640    2.8539   -3.8085 C   0  0  0  0  0  0  0  0  0  0  0  0
    6.2800    2.5498   -3.7162 C   0  0  0  0  0  0  0  0  0  0  0  0
    6.5219    4.0199   -4.1185 C   0  0  0  0  0  0  0  0  0  0  0  0
    5.1391    3.9819   -4.8030 C   0  0  0  0  0  0  0  0  0  0  0  0
    3.7750    1.3923   -5.6666 N   0  0  0  0  0  0  0  0  0  0  0  0
    2.9737    0.3110   -5.6642 N   0  0  0  0  0  0  0  0  0  0  0  0
    2.5736   -0.0858   -4.4209 C   0  0  0  0  0  0  0  0  0  0  0  0
   -1.9014   -1.7847   -4.2625 C   0  0  0  0  0  0  0  0  0  0  0  0
   -2.9984   -1.2266   -3.5988 C   0  0  0  0  0  0  0  0  0  0  0  0
   -5.3081   -0.1529   -1.9932 C   0  0  0  0  0  0  0  0  0  0  0  0
   -6.0324    0.2909   -0.9139 C   0  0  0  0  0  0  0  0  0  0  0  0
   -5.4802    0.1325    1.2442 H   0  0  0  0  0  0  0  0  0  0  0  0
   -2.3682   -2.4549   -0.4725 H   0  0  0  0  0  0  0  0  0  0  0  0
   -0.4385   -3.4033   -1.6485 H   0  0  0  0  0  0  0  0  0  0  0  0
    0.8862   -3.6969   -3.5836 H   0  0  0  0  0  0  0  0  0  0  0  0
   -0.0231   -3.7144   -5.0826 H   0  0  0  0  0  0  0  0  0  0  0  0
    1.2399   -1.9514   -5.7806 H   0  0  0  0  0  0  0  0  0  0  0  0
    0.2617    1.3679   -0.2414 H   0  0  0  0  0  0  0  0  0  0  0  0
   -0.3549   -0.1097   -0.9858 H   0  0  0  0  0  0  0  0  0  0  0  0
   -0.6045   -1.1661    1.3031 H   0  0  0  0  0  0  0  0  0  0  0  0
   -0.0184    0.3523    2.0383 H   0  0  0  0  0  0  0  0  0  0  0  0
   -1.9606    1.4469    0.9531 H   0  0  0  0  0  0  0  0  0  0  0  0
   -2.3420    0.3113    2.0978 H   0  0  0  0  0  0  0  0  0  0  0  0
   -2.5405   -0.0469    0.5177 H   0  0  0  0  0  0  0  0  0  0  0  0
    4.3559    3.2533   -2.8698 H   0  0  0  0  0  0  0  0  0  0  0  0
    6.6550    1.8284   -4.4517 H   0  0  0  0  0  0  0  0  0  0  0  0
    6.6470    2.2680   -2.7259 H   0  0  0  0  0  0  0  0  0  0  0  0
    7.3750    4.1999   -4.7775 H   0  0  0  0  0  0  0  0  0  0  0  0
    6.5748    4.7078   -3.2670 H   0  0  0  0  0  0  0  0  0  0  0  0
    4.5512    4.9001   -4.7191 H   0  0  0  0  0  0  0  0  0  0  0  0
    5.1909    3.6918   -5.8585 H   0  0  0  0  0  0  0  0  0  0  0  0
    2.7404   -0.1081   -6.5570 H   0  0  0  0  0  0  0  0  0  0  0  0
   -1.7662   -1.5925   -5.3259 H   0  0  0  0  0  0  0  0  0  0  0  0
   -3.6819   -0.6116   -4.1783 H   0  0  0  0  0  0  0  0  0  0  0  0
   -5.5438   -0.1413   -3.0475 H   0  0  0  0  0  0  0  0  0  0  0  0
   -7.0056    0.7645   -0.9336 H   0  0  0  0  0  0  0  0  0  0  0  0
 31  1  1  0
  1  2  2  0
  2  3  1  0
  3  4  1  0
  4  5  2  0
  5 32  1  0
  5  6  1  0
  6 33  1  0
  6  7  2  0
  7  8  1  0
  8 34  1  0
  8 35  1  0
  8  9  1  0
  9 36  1  0
  9 10  1  0
 10 11  2  0
 11 12  1  0
 12 13  1  0
 13 14  1  0
 14 37  1  0
 14 38  1  0
 14 15  1  0
 15 39  1  0
 15 40  1  0
 15 16  1  0
 16 41  1  0
 16 42  1  0
 16 43  1  0
 12 17  2  0
 17 18  1  0
 18 19  1  0
 19 20  1  0
 20 44  1  0
 20 21  1  0
 21 45  1  0
 21 46  1  0
 21 22  1  0
 22 47  1  0
 22 48  1  0
 20 23  1  0
 22 23  1  0
 23 49  1  0
 23 50  1  0
 19 24  2  0
 24 25  1  0
 25 51  1  0
 10 26  1  0
 18 26  2  0
 25 26  1  0
  7 27  1  0
 27 52  1  0
  4 28  1  0
 27 28  2  0
 28 53  1  0
  3 29  1  0
 29 54  1  0
  1 30  1  0
 29 30  2  0
 30 55  1  0
M  CHG  1  16   1
M  END
>  <conformer_energy>  (1) 
-21.87

>  <ligand_smiles>  (1) 
[NH3+]CCSc1nc(NCc2ccc(-n3cccn3)cc2)c2[nH]nc(C3CCC3)c2n1

>  <ligand_conf_name>  (1) 
MOL_0_isomer_0_conf_0

>  <ligand_molecule_name>  (1) 
MOL_0_isomer_0

$$$$
