MOL_0_isomer_0_conf_0
     RDKit          3D

 66 69  0  0  0  0  0  0  0  0999 V2000
   -1.3530   -2.2226    0.9376 O   0  0  0  0  0  0  0  0  0  0  0  0
   -0.7024   -1.4168    1.9404 C   0  0  1  0  0  0  0  0  0  0  0  0
   -0.6118    0.0387    1.4583 C   0  0  1  0  0  0  0  0  0  0  0  0
   -0.0859    0.9233    2.4568 O   0  0  0  0  0  0  0  0  0  0  0  0
    0.1844    0.2029    0.1421 C   0  0  0  0  0  0  0  0  0  0  0  0
    1.6622    0.0404    0.2948 N   0  0  0  0  0  0  0  0  0  0  0  0
    2.2813   -1.1482   -0.2157 C   0  0  0  0  0  0  0  0  0  0  0  0
    1.5433   -2.2300   -0.6987 C   0  0  0  0  0  0  0  0  0  0  0  0
    2.1345   -3.3749   -1.2496 C   0  0  0  0  0  0  0  0  0  0  0  0
    1.1996   -4.4533   -1.7498 C   0  0  0  0  0  0  0  0  0  0  0  0
    3.5429   -3.5039   -1.2994 C   0  0  0  0  0  0  0  0  0  0  0  0
    4.0747   -4.7524   -1.9640 C   0  0  0  0  0  0  0  0  0  0  0  0
    4.3625   -2.4437   -0.7985 C   0  0  0  0  0  0  0  0  0  0  0  0
    3.7112   -1.2716   -0.2437 C   0  0  0  0  0  0  0  0  0  0  0  0
    4.4821   -0.1673    0.2840 N   0  0  0  0  0  0  0  0  0  0  0  0
    3.8261    1.0291    0.5981 C   0  0  0  0  0  0  0  0  0  0  0  0
    2.4767    1.1284    0.6771 C   0  0  0  0  0  0  0  0  0  0  0  0
    1.9252    2.2992    1.1481 N   0  0  0  0  0  0  0  0  0  0  0  0
    2.6083    3.4223    1.4851 C   0  0  0  0  0  0  0  0  0  0  0  0
    2.0620    4.4364    1.9071 O   0  0  0  0  0  0  0  0  0  0  0  0
    3.9476    3.3762    1.2859 N   0  0  0  0  0  0  0  0  0  0  0  0
    4.5945    2.3170    0.7311 C   0  0  0  0  0  0  0  0  0  0  0  0
    5.7424    2.4502    0.2981 O   0  0  0  0  0  0  0  0  0  0  0  0
    5.7674   -0.6099    0.7998 C   0  0  2  0  0  0  0  0  0  0  0  0
    6.5541    0.3971    1.4143 O   0  0  0  0  0  0  0  0  0  0  0  0
    6.5426   -1.1727   -0.3689 C   0  0  0  0  0  0  0  0  0  0  0  0
    5.9165   -2.5135   -0.8145 C   0  0  0  0  0  0  0  0  0  0  0  0
    6.4995   -2.7689   -2.2237 C   0  0  0  0  0  0  0  0  0  0  0  0
    6.4310   -3.5879    0.1798 C   0  0  0  0  0  0  0  0  0  0  0  0
   -1.4194   -1.6312    3.2896 C   0  0  2  0  0  0  0  0  0  0  0  0
   -1.3603   -3.0617    3.4768 O   0  0  0  0  0  0  0  0  0  0  0  0
   -2.8674   -1.1192    3.3053 C   0  0  0  0  0  0  0  0  0  0  0  0
   -3.3503   -1.0886    4.6386 O   0  0  0  0  0  0  0  0  0  0  0  0
   -4.2813   -2.3550    5.0960 P   0  0  0  0  0  5  0  0  0  0  0  0
   -3.3487   -3.5368    4.8602 O   0  0  0  0  0  0  0  0  0  0  0  0
   -5.4641   -2.2922    4.1449 O   0  0  0  0  0  1  0  0  0  0  0  0
   -4.5914   -2.0676    6.5525 O   0  0  0  0  0  1  0  0  0  0  0  0
   -1.6733   -3.0003    1.4568 H   0  0  0  0  0  0  0  0  0  0  0  0
    0.3102   -1.8249    2.0490 H   0  0  0  0  0  0  0  0  0  0  0  0
   -1.6237    0.3933    1.2309 H   0  0  0  0  0  0  0  0  0  0  0  0
    0.6384    0.4420    2.9005 H   0  0  0  0  0  0  0  0  0  0  0  0
    0.0067    1.2255   -0.2208 H   0  0  0  0  0  0  0  0  0  0  0  0
   -0.2461   -0.4022   -0.6605 H   0  0  0  0  0  0  0  0  0  0  0  0
    0.4602   -2.2284   -0.6575 H   0  0  0  0  0  0  0  0  0  0  0  0
    0.1593   -4.1117   -1.7763 H   0  0  0  0  0  0  0  0  0  0  0  0
    1.2437   -5.3255   -1.0903 H   0  0  0  0  0  0  0  0  0  0  0  0
    1.4582   -4.7449   -2.7728 H   0  0  0  0  0  0  0  0  0  0  0  0
    4.1404   -4.5939   -3.0454 H   0  0  0  0  0  0  0  0  0  0  0  0
    3.4309   -5.6182   -1.7801 H   0  0  0  0  0  0  0  0  0  0  0  0
    5.0424   -5.0740   -1.5953 H   0  0  0  0  0  0  0  0  0  0  0  0
    0.9307    2.3146    1.3587 H   0  0  0  0  0  0  0  0  0  0  0  0
    4.4649    4.2240    1.4440 H   0  0  0  0  0  0  0  0  0  0  0  0
    5.6108   -1.3532    1.5891 H   0  0  0  0  0  0  0  0  0  0  0  0
    6.6057    1.1242    0.7616 H   0  0  0  0  0  0  0  0  0  0  0  0
    6.5302   -0.4429   -1.1929 H   0  0  0  0  0  0  0  0  0  0  0  0
    7.6036   -1.2926   -0.1109 H   0  0  0  0  0  0  0  0  0  0  0  0
    7.5831   -2.5954   -2.2355 H   0  0  0  0  0  0  0  0  0  0  0  0
    6.0485   -2.0975   -2.9640 H   0  0  0  0  0  0  0  0  0  0  0  0
    6.3625   -3.7904   -2.5792 H   0  0  0  0  0  0  0  0  0  0  0  0
    7.5202   -3.5286    0.2932 H   0  0  0  0  0  0  0  0  0  0  0  0
    6.2192   -4.6113   -0.1285 H   0  0  0  0  0  0  0  0  0  0  0  0
    5.9869   -3.4692    1.1742 H   0  0  0  0  0  0  0  0  0  0  0  0
   -0.8493   -1.1763    4.1070 H   0  0  0  0  0  0  0  0  0  0  0  0
   -2.1239   -3.2899    4.1030 H   0  0  0  0  0  0  0  0  0  0  0  0
   -2.9233   -0.0893    2.9451 H   0  0  0  0  0  0  0  0  0  0  0  0
   -3.5091   -1.7351    2.6665 H   0  0  0  0  0  0  0  0  0  0  0  0
 38  1  1  0
  1  2  1  0
  2 39  1  1
  2  3  1  0
  3 40  1  6
  3  4  1  0
  4 41  1  0
  3  5  1  0
  5 42  1  0
  5 43  1  0
  5  6  1  0
  6  7  1  0
  7  8  1  0
  8 44  1  0
  8  9  2  0
  9 10  1  0
 10 45  1  0
 10 46  1  0
 10 47  1  0
  9 11  1  0
 11 12  1  0
 12 48  1  0
 12 49  1  0
 12 50  1  0
 11 13  2  0
  7 14  2  0
 13 14  1  0
 14 15  1  0
 15 16  1  0
  6 17  1  0
 16 17  2  0
 17 18  1  0
 18 51  1  0
 18 19  1  0
 19 20  2  0
 19 21  1  0
 21 52  1  0
 16 22  1  0
 21 22  1  0
 22 23  2  0
 15 24  1  0
 24 53  1  1
 24 25  1  0
 25 54  1  0
 24 26  1  0
 26 55  1  0
 26 56  1  0
 13 27  1  0
 26 27  1  0
 27 28  1  0
 28 57  1  0
 28 58  1  0
 28 59  1  0
 27 29  1  0
 29 60  1  0
 29 61  1  0
 29 62  1  0
  2 30  1  0
 30 63  1  1
 30 31  1  0
 31 64  1  0
 30 32  1  0
 32 65  1  0
 32 66  1  0
 32 33  1  0
 33 34  1  0
 34 35  2  0
 34 36  1  0
 34 37  1  0
M  CHG  2  36  -1  37  -1
M  END
>  <conformer_energy>  (1) 
-44.79

>  <ligand_smiles>  (1) 
Cc1cc2c3c(c1C)C(C)(C)C[C@@H](O)N3c1c([nH]c(=O)[nH]c1=O)N2C[C@H](O)[C@H](O)[C@H](O)COP(=O)([O-])[O-]

>  <ligand_conf_name>  (1) 
MOL_0_isomer_0_conf_0

>  <ligand_molecule_name>  (1) 
MOL_0_isomer_0

$$$$
