MOL_0_isomer_0_conf_0
     RDKit          3D

 41 43  0  0  0  0  0  0  0  0999 V2000
    3.8443    0.5302    7.5889 O   0  0  0  0  0  0  0  0  0  0  0  0
    3.2907    0.5048    6.3432 C   0  0  0  0  0  0  0  0  0  0  0  0
    2.7055   -0.6861    5.9323 C   0  0  0  0  0  0  0  0  0  0  0  0
    2.1281   -0.7695    4.6678 C   0  0  0  0  0  0  0  0  0  0  0  0
    2.1410    0.3438    3.8174 C   0  0  0  0  0  0  0  0  0  0  0  0
    1.5292    0.2190    2.4858 C   0  0  0  0  0  0  0  0  0  0  0  0
    2.2012   -0.1702    1.3854 C   0  0  0  0  0  0  0  0  0  0  0  0
    1.5152   -0.2043    0.0494 C   0  0  0  0  0  0  0  0  0  0  0  0
    0.0442   -0.1899   -0.0287 C   0  0  0  0  0  0  0  0  0  0  0  0
   -0.6877   -1.2750    0.4371 C   0  0  0  0  0  0  0  0  0  0  0  0
   -2.0318   -1.3436    0.3543 N   0  0  0  0  0  0  0  0  0  0  0  0
   -2.6753   -0.2883   -0.1947 C   0  0  0  0  0  0  0  0  0  0  0  0
   -2.0253    0.8367   -0.6798 C   0  0  0  0  0  0  0  0  0  0  0  0
   -0.6353    0.8872   -0.6007 C   0  0  0  0  0  0  0  0  0  0  0  0
    2.2020   -0.2642   -1.0431 N   0  0  0  0  0  4  0  0  0  0  0  0
    3.6774   -0.3416   -1.1499 C   0  0  0  0  0  0  0  0  0  0  0  0
    4.3303    0.1366    0.1364 C   0  0  0  0  0  0  0  0  0  0  0  0
    3.6765   -0.5071    1.3559 C   0  0  0  0  0  0  0  0  0  0  0  0
    2.7329    1.5530    4.2407 C   0  0  0  0  0  0  0  0  0  0  0  0
    2.7083    2.5848    3.3332 O   0  0  0  0  0  0  0  0  0  0  0  0
    3.1229    3.8651    3.7984 C   0  0  0  0  0  0  0  0  0  0  0  0
    3.3118    1.6245    5.5128 C   0  0  0  0  0  0  0  0  0  0  0  0
    4.1754    1.4227    7.7828 H   0  0  0  0  0  0  0  0  0  0  0  0
    2.6973   -1.5448    6.5991 H   0  0  0  0  0  0  0  0  0  0  0  0
    1.6670   -1.7046    4.3597 H   0  0  0  0  0  0  0  0  0  0  0  0
    0.4823    0.5145    2.4807 H   0  0  0  0  0  0  0  0  0  0  0  0
   -0.2186   -2.1427    0.8939 H   0  0  0  0  0  0  0  0  0  0  0  0
   -3.7593   -0.3729   -0.2324 H   0  0  0  0  0  0  0  0  0  0  0  0
   -2.5971    1.6578   -1.1025 H   0  0  0  0  0  0  0  0  0  0  0  0
   -0.1152    1.7715   -0.9596 H   0  0  0  0  0  0  0  0  0  0  0  0
    1.6939   -0.3121   -1.9331 H   0  0  0  0  0  0  0  0  0  0  0  0
    3.9248   -1.3847   -1.3700 H   0  0  0  0  0  0  0  0  0  0  0  0
    3.9770    0.2833   -1.9964 H   0  0  0  0  0  0  0  0  0  0  0  0
    4.2501    1.2296    0.2118 H   0  0  0  0  0  0  0  0  0  0  0  0
    5.3999   -0.1010    0.1147 H   0  0  0  0  0  0  0  0  0  0  0  0
    3.7936   -1.5972    1.3137 H   0  0  0  0  0  0  0  0  0  0  0  0
    4.2028   -0.1629    2.2515 H   0  0  0  0  0  0  0  0  0  0  0  0
    2.9526    4.5836    2.9908 H   0  0  0  0  0  0  0  0  0  0  0  0
    4.1935    3.8699    4.0271 H   0  0  0  0  0  0  0  0  0  0  0  0
    2.5298    4.1866    4.6610 H   0  0  0  0  0  0  0  0  0  0  0  0
    3.7853    2.5319    5.8678 H   0  0  0  0  0  0  0  0  0  0  0  0
 23  1  1  0
  1  2  1  0
  2  3  2  0
  3 24  1  0
  3  4  1  0
  4 25  1  0
  4  5  2  0
  5  6  1  0
  6 26  1  0
  6  7  2  0
  7  8  1  0
  8  9  1  0
  9 10  2  0
 10 27  1  0
 10 11  1  0
 11 12  2  0
 12 28  1  0
 12 13  1  0
 13 29  1  0
  9 14  1  0
 13 14  2  0
 14 30  1  0
  8 15  2  0
 15 31  1  0
 15 16  1  0
 16 32  1  0
 16 33  1  0
 16 17  1  0
 17 34  1  0
 17 35  1  0
  7 18  1  0
 17 18  1  0
 18 36  1  0
 18 37  1  0
  5 19  1  0
 19 20  1  0
 20 21  1  0
 21 38  1  0
 21 39  1  0
 21 40  1  0
  2 22  1  0
 19 22  2  0
 22 41  1  0
M  CHG  1  15   1
M  END
>  <conformer_energy>  (1) 
77.77

>  <ligand_smiles>  (1) 
COc1cc(O)ccc1/C=C1\CCC[NH+]=C1c1cccnc1

>  <ligand_conf_name>  (1) 
MOL_0_isomer_0_conf_0

>  <ligand_molecule_name>  (1) 
MOL_0_isomer_0

$$$$
