MOL_0_isomer_0_conf_0
     RDKit          3D

 44 46  0  0  0  0  0  0  0  0999 V2000
    5.0948   -2.4540   -1.9377 O   0  0  0  0  0  0  0  0  0  0  0  0
    3.7659   -2.0166   -2.1936 C   0  0  2  0  0  0  0  0  0  0  0  0
    3.4744   -0.7997   -1.3413 C   0  0  1  0  0  0  0  0  0  0  0  0
    3.9999    0.3994   -1.8830 O   0  0  0  0  0  0  0  0  0  0  0  0
    1.9561   -0.7861   -1.3373 C   0  0  2  0  0  0  0  0  0  0  0  0
    1.4237    0.0448   -0.1610 C   0  0  0  0  0  0  0  0  0  0  0  0
   -0.0864    0.2646   -0.1776 N   0  0  0  0  0  4  0  0  0  0  0  0
   -0.9007   -1.0049   -0.0824 C   0  0  0  0  0  0  0  0  0  0  0  0
   -2.3544   -0.6363    0.1865 C   0  0  0  0  0  0  0  0  0  0  0  0
   -2.8998    0.3061   -0.8835 C   0  0  0  0  0  0  0  0  0  0  0  0
   -2.0146    1.5388   -1.0479 C   0  0  0  0  0  0  0  0  0  0  0  0
   -0.5591    1.1627   -1.2960 C   0  0  0  0  0  0  0  0  0  0  0  0
    1.5556   -2.1670   -1.2453 O   0  0  0  0  0  0  0  0  0  0  0  0
    2.6595   -2.9831   -1.7230 C   0  0  1  0  0  0  0  0  0  0  0  0
    2.2257   -3.9121   -2.7665 N   0  0  0  0  0  0  0  0  0  0  0  0
    0.9576   -3.8757   -3.3130 C   0  0  0  0  0  0  0  0  0  0  0  0
    0.5664   -4.7409   -4.2514 C   0  0  0  0  0  0  0  0  0  0  0  0
    1.5110   -5.7678   -4.7166 C   0  0  0  0  0  0  0  0  0  0  0  0
    1.1901   -6.5763   -5.5767 O   0  0  0  0  0  0  0  0  0  0  0  0
    2.7426   -5.7445   -4.1318 N   0  0  0  0  0  0  0  0  0  0  0  0
    3.1620   -4.8574   -3.1801 C   0  0  0  0  0  0  0  0  0  0  0  0
    4.3116   -4.8900   -2.7435 O   0  0  0  0  0  0  0  0  0  0  0  0
    5.1766   -3.3733   -2.2827 H   0  0  0  0  0  0  0  0  0  0  0  0
    3.6843   -1.7796   -3.2612 H   0  0  0  0  0  0  0  0  0  0  0  0
    3.8850   -0.9283   -0.3317 H   0  0  0  0  0  0  0  0  0  0  0  0
    4.9524    0.2325   -2.0477 H   0  0  0  0  0  0  0  0  0  0  0  0
    1.5801   -0.3859   -2.2860 H   0  0  0  0  0  0  0  0  0  0  0  0
    1.6340   -0.4528    0.7927 H   0  0  0  0  0  0  0  0  0  0  0  0
    1.8736    1.0433   -0.1386 H   0  0  0  0  0  0  0  0  0  0  0  0
   -0.2708    0.7806    0.6939 H   0  0  0  0  0  0  0  0  0  0  0  0
   -0.4916   -1.6042    0.7368 H   0  0  0  0  0  0  0  0  0  0  0  0
   -0.8082   -1.5420   -1.0308 H   0  0  0  0  0  0  0  0  0  0  0  0
   -2.9639   -1.5463    0.2197 H   0  0  0  0  0  0  0  0  0  0  0  0
   -2.4391   -0.1594    1.1709 H   0  0  0  0  0  0  0  0  0  0  0  0
   -3.9186    0.6135   -0.6225 H   0  0  0  0  0  0  0  0  0  0  0  0
   -2.9615   -0.2270   -1.8403 H   0  0  0  0  0  0  0  0  0  0  0  0
   -2.3834    2.1479   -1.8808 H   0  0  0  0  0  0  0  0  0  0  0  0
   -2.0847    2.1587   -0.1453 H   0  0  0  0  0  0  0  0  0  0  0  0
   -0.4414    0.6206   -2.2396 H   0  0  0  0  0  0  0  0  0  0  0  0
    0.0762    2.0540   -1.2984 H   0  0  0  0  0  0  0  0  0  0  0  0
    3.0124   -3.5815   -0.8731 H   0  0  0  0  0  0  0  0  0  0  0  0
    0.2686   -3.1185   -2.9563 H   0  0  0  0  0  0  0  0  0  0  0  0
   -0.4205   -4.7375   -4.6955 H   0  0  0  0  0  0  0  0  0  0  0  0
    3.4056   -6.4395   -4.4428 H   0  0  0  0  0  0  0  0  0  0  0  0
 23  1  1  0
  1  2  1  0
  2 24  1  6
  2  3  1  0
  3 25  1  1
  3  4  1  0
  4 26  1  0
  3  5  1  0
  5 27  1  6
  5  6  1  0
  6 28  1  0
  6 29  1  0
  6  7  1  0
  7 30  1  0
  7  8  1  0
  8 31  1  0
  8 32  1  0
  8  9  1  0
  9 33  1  0
  9 34  1  0
  9 10  1  0
 10 35  1  0
 10 36  1  0
 10 11  1  0
 11 37  1  0
 11 38  1  0
  7 12  1  0
 11 12  1  0
 12 39  1  0
 12 40  1  0
  5 13  1  0
  2 14  1  0
 13 14  1  0
 14 41  1  1
 14 15  1  0
 15 16  1  0
 16 42  1  0
 16 17  2  0
 17 43  1  0
 17 18  1  0
 18 19  2  0
 18 20  1  0
 20 44  1  0
 15 21  1  0
 20 21  1  0
 21 22  2  0
M  CHG  1   7   1
M  END
>  <conformer_energy>  (1) 
-15.55

>  <ligand_smiles>  (1) 
O=c1ccn([C@@H]2O[C@@H](C[NH+]3CCCCC3)[C@H](O)[C@H]2O)c(=O)[nH]1

>  <ligand_conf_name>  (1) 
MOL_0_isomer_0_conf_0

>  <ligand_molecule_name>  (1) 
MOL_0_isomer_0

$$$$
