MOL_0_isomer_0_conf_0
     RDKit          3D

 35 37  0  0  0  0  0  0  0  0999 V2000
    2.1442    0.2047    1.1412 C   0  0  0  0  0  0  0  0  0  0  0  0
    3.5121   -0.0105    1.0297 C   0  0  0  0  0  0  0  0  0  0  0  0
    4.4064   -0.0692    2.2024 C   0  0  0  0  0  0  0  0  0  0  0  0
    4.0163   -0.6992    3.3976 C   0  0  0  0  0  0  0  0  0  0  0  0
    4.8533   -0.7620    4.5208 C   0  0  0  0  0  0  0  0  0  0  0  0
    6.1151   -0.1718    4.4186 C   0  0  0  0  0  0  0  0  0  0  0  0
    6.5558    0.4591    3.2576 C   0  0  0  0  0  0  0  0  0  0  0  0
    5.6938    0.5055    2.1434 C   0  0  0  0  0  0  0  0  0  0  0  0
    7.8714    0.9352    3.5115 C   0  0  0  0  0  0  0  0  0  0  0  0
    8.2004    0.5887    4.8020 C   0  0  0  0  0  0  0  0  0  0  0  0
    7.1337   -0.0809    5.3408 N   0  0  0  0  0  0  0  0  0  0  0  0
    4.1091   -0.1734   -0.1659 N   0  0  0  0  0  0  0  0  0  0  0  0
    3.2782   -0.1262   -1.2199 C   0  0  0  0  0  0  0  0  0  0  0  0
    4.0235   -0.3614   -2.8216 S   0  0  0  0  0  6  0  0  0  0  0  0
    4.0053    0.9100   -3.5283 O   0  0  0  0  0  0  0  0  0  0  0  0
    3.4602   -1.5605   -3.4228 O   0  0  0  0  0  0  0  0  0  0  0  0
    5.7214   -0.7247   -2.4632 C   0  0  0  0  0  0  0  0  0  0  0  0
    1.9486    0.0665   -1.2180 N   0  0  0  0  0  0  0  0  0  0  0  0
    1.3898    0.2376   -0.0174 C   0  0  0  0  0  0  0  0  0  0  0  0
    0.0392    0.4427   -0.0386 N   0  0  0  0  0  0  0  0  0  0  0  0
   -0.8029    0.6777    1.1018 C   0  0  0  0  0  0  0  0  0  0  0  0
    1.6862    0.3581    2.1091 H   0  0  0  0  0  0  0  0  0  0  0  0
    3.0413   -1.1789    3.4694 H   0  0  0  0  0  0  0  0  0  0  0  0
    4.5290   -1.2588    5.4295 H   0  0  0  0  0  0  0  0  0  0  0  0
    6.0316    0.9983    1.2349 H   0  0  0  0  0  0  0  0  0  0  0  0
    8.5076    1.4736    2.8212 H   0  0  0  0  0  0  0  0  0  0  0  0
    9.0984    0.7591    5.3806 H   0  0  0  0  0  0  0  0  0  0  0  0
    7.0946   -0.4564    6.2782 H   0  0  0  0  0  0  0  0  0  0  0  0
    6.2369   -0.8912   -3.4121 H   0  0  0  0  0  0  0  0  0  0  0  0
    5.7770   -1.6293   -1.8545 H   0  0  0  0  0  0  0  0  0  0  0  0
    6.1734    0.1252   -1.9480 H   0  0  0  0  0  0  0  0  0  0  0  0
   -0.3662    0.4398   -0.9681 H   0  0  0  0  0  0  0  0  0  0  0  0
   -0.7782   -0.1708    1.7930 H   0  0  0  0  0  0  0  0  0  0  0  0
   -1.8387    0.8109    0.7744 H   0  0  0  0  0  0  0  0  0  0  0  0
   -0.5021    1.5855    1.6347 H   0  0  0  0  0  0  0  0  0  0  0  0
 22  1  1  0
  1  2  2  0
  2  3  1  0
  3  4  2  0
  4 23  1  0
  4  5  1  0
  5 24  1  0
  5  6  2  0
  6  7  1  0
  3  8  1  0
  7  8  2  0
  8 25  1  0
  7  9  1  0
  9 26  1  0
  9 10  2  0
 10 27  1  0
  6 11  1  0
 10 11  1  0
 11 28  1  0
  2 12  1  0
 12 13  2  0
 13 14  1  0
 14 15  2  0
 14 16  2  0
 14 17  1  0
 17 29  1  0
 17 30  1  0
 17 31  1  0
 13 18  1  0
  1 19  1  0
 18 19  2  0
 19 20  1  0
 20 32  1  0
 20 21  1  0
 21 33  1  0
 21 34  1  0
 21 35  1  0
M  END
>  <conformer_energy>  (1) 
57.67

>  <ligand_smiles>  (1) 
CNc1cc(-c2ccc3[nH]ccc3c2)nc(S(C)(=O)=O)n1

>  <ligand_conf_name>  (1) 
MOL_0_isomer_0_conf_0

>  <ligand_molecule_name>  (1) 
MOL_0_isomer_0

$$$$
