MOL_0_isomer_0_conf_0
     RDKit          3D

 11 10  0  0  0  0  0  0  0  0999 V2000
    2.1220    1.2315    1.0630 C   0  0  0  0  0  0  0  0  0  0  0  0
    3.6930    0.9600    2.0452 S   0  0  0  0  0  1  0  0  0  0  0  0
    1.6725   -0.0734    0.3951 C   0  0  0  0  0  0  0  0  0  0  0  0
    0.1601    0.0834   -0.5799 S   0  0  0  0  0  6  0  0  0  0  0  0
   -0.0545   -1.2708   -1.1034 O   0  0  0  0  0  0  0  0  0  0  0  0
    0.4670    1.0658   -1.6216 O   0  0  0  0  0  0  0  0  0  0  0  0
   -0.8727    0.5093    0.3669 O   0  0  0  0  0  1  0  0  0  0  0  0
    1.3124    1.6028    1.7026 H   0  0  0  0  0  0  0  0  0  0  0  0
    2.2632    1.9976    0.2912 H   0  0  0  0  0  0  0  0  0  0  0  0
    1.4715   -0.8512    1.1416 H   0  0  0  0  0  0  0  0  0  0  0  0
    2.4384   -0.4497   -0.2938 H   0  0  0  0  0  0  0  0  0  0  0  0
  8  1  1  0
  1  9  1  0
  1  2  1  0
  1  3  1  0
  3 10  1  0
  3 11  1  0
  3  4  1  0
  4  5  2  0
  4  6  2  0
  4  7  1  0
M  CHG  2   2  -1   7  -1
M  END
>  <conformer_energy>  (1) 
93.31

>  <ligand_smiles>  (1) 
O=S(=O)([O-])CC[S-]

>  <ligand_conf_name>  (1) 
MOL_0_isomer_0_conf_0

>  <ligand_molecule_name>  (1) 
MOL_0_isomer_0

$$$$
