MOL_0_isomer_0_conf_0
     RDKit          3D

 42 45  0  0  0  0  0  0  0  0999 V2000
   -3.6348    0.0597   -2.5393 C   0  0  0  0  0  0  0  0  0  0  0  0
   -4.9470    0.0713   -2.0786 C   0  0  0  0  0  0  0  0  0  0  0  0
   -5.2258    0.0732   -0.7105 C   0  0  0  0  0  0  0  0  0  0  0  0
   -4.1422    0.0631    0.1765 C   0  0  0  0  0  0  0  0  0  0  0  0
   -2.8103    0.0513   -0.2474 C   0  0  0  0  0  0  0  0  0  0  0  0
   -2.5625    0.0497   -1.6388 C   0  0  0  0  0  0  0  0  0  0  0  0
   -1.9862    0.0434    0.9302 C   0  0  0  0  0  0  0  0  0  0  0  0
   -0.5375    0.0303    1.0607 C   0  0  0  0  0  0  0  0  0  0  0  0
    0.0512    0.0247    2.1376 O   0  0  0  0  0  0  0  0  0  0  0  0
    0.1237    0.0247   -0.1349 O   0  0  0  0  0  0  0  0  0  0  0  0
    1.5647    0.0119   -0.1046 C   0  0  2  0  0  0  0  0  0  0  0  0
    2.1304   -1.3142    0.4391 C   0  0  0  0  0  0  0  0  0  0  0  0
    3.4182   -1.1779    1.2540 C   0  0  2  0  0  0  0  0  0  0  0  0
    3.1513   -0.7649    2.7005 C   0  0  0  0  0  0  0  0  0  0  0  0
    3.1648    0.7592    2.7009 C   0  0  0  0  0  0  0  0  0  0  0  0
    3.4389    1.1681    1.2545 C   0  0  2  0  0  0  0  0  0  0  0  0
    2.1538    1.3276    0.4397 C   0  0  0  0  0  0  0  0  0  0  0  0
    4.2056   -0.0116    0.6935 N   0  0  1  0  0  4  0  0  0  0  0  0
    5.6683   -0.0246    1.0432 C   0  0  0  0  0  0  0  0  0  0  0  0
   -2.8501    0.0507    2.0139 C   0  0  0  0  0  0  0  0  0  0  0  0
   -4.1361    0.0624    1.5507 N   0  0  0  0  0  0  0  0  0  0  0  0
   -3.4404    0.0584   -3.6094 H   0  0  0  0  0  0  0  0  0  0  0  0
   -5.7686    0.0790   -2.7921 H   0  0  0  0  0  0  0  0  0  0  0  0
   -6.2518    0.0823   -0.3553 H   0  0  0  0  0  0  0  0  0  0  0  0
   -1.5491    0.0407   -2.0271 H   0  0  0  0  0  0  0  0  0  0  0  0
    1.8298    0.0098   -1.1718 H   0  0  0  0  0  0  0  0  0  0  0  0
    1.3814   -1.8839    1.0007 H   0  0  0  0  0  0  0  0  0  0  0  0
    2.3513   -1.9497   -0.4305 H   0  0  0  0  0  0  0  0  0  0  0  0
    4.0222   -2.0891    1.1867 H   0  0  0  0  0  0  0  0  0  0  0  0
    3.9515   -1.1364    3.3523 H   0  0  0  0  0  0  0  0  0  0  0  0
    2.2154   -1.1728    3.0937 H   0  0  0  0  0  0  0  0  0  0  0  0
    2.2361    1.1835    3.0942 H   0  0  0  0  0  0  0  0  0  0  0  0
    3.9713    1.1163    3.3528 H   0  0  0  0  0  0  0  0  0  0  0  0
    4.0590    2.0685    1.1877 H   0  0  0  0  0  0  0  0  0  0  0  0
    1.4150    1.9102    1.0015 H   0  0  0  0  0  0  0  0  0  0  0  0
    2.3859    1.9594   -0.4297 H   0  0  0  0  0  0  0  0  0  0  0  0
    4.1709   -0.0111   -0.3350 H   0  0  0  0  0  0  0  0  0  0  0  0
    6.1058   -0.9237    0.6017 H   0  0  0  0  0  0  0  0  0  0  0  0
    6.1217    0.8667    0.6020 H   0  0  0  0  0  0  0  0  0  0  0  0
    5.7912   -0.0259    2.1283 H   0  0  0  0  0  0  0  0  0  0  0  0
   -2.6497    0.0484    3.0781 H   0  0  0  0  0  0  0  0  0  0  0  0
   -4.9679    0.0697    2.1269 H   0  0  0  0  0  0  0  0  0  0  0  0
 22  1  1  0
  1  2  2  0
  2 23  1  0
  2  3  1  0
  3 24  1  0
  3  4  2  0
  4  5  1  0
  1  6  1  0
  5  6  2  0
  6 25  1  0
  5  7  1  0
  7  8  1  0
  8  9  2  0
  8 10  1  0
 10 11  1  0
 11 26  1  6
 11 12  1  0
 12 27  1  0
 12 28  1  0
 12 13  1  0
 13 29  1  1
 13 14  1  0
 14 30  1  0
 14 31  1  0
 14 15  1  0
 15 32  1  0
 15 33  1  0
 15 16  1  0
 16 34  1  1
 11 17  1  0
 16 17  1  0
 17 35  1  0
 17 36  1  0
 13 18  1  0
 16 18  1  0
 18 37  1  6
 18 19  1  0
 19 38  1  0
 19 39  1  0
 19 40  1  0
  7 20  2  0
 20 41  1  0
  4 21  1  0
 20 21  1  0
 21 42  1  0
M  CHG  1  18   1
M  END
>  <conformer_energy>  (1) 
45.57

>  <ligand_smiles>  (1) 
C[N@@H+]1[C@@H]2CC[C@H]1C[C@@H](OC(=O)c1c[nH]c3ccccc13)C2

>  <ligand_conf_name>  (1) 
MOL_0_isomer_0_conf_0

>  <ligand_molecule_name>  (1) 
MOL_0_isomer_0

$$$$
