MOL_0_isomer_0_conf_0
     RDKit          3D

 58 61  0  0  0  0  0  0  0  0999 V2000
    2.5592   -2.0523   -2.6555 C   0  0  0  0  0  0  0  0  0  0  0  0
    1.2967   -2.4442   -2.8552 N   0  0  0  0  0  0  0  0  0  0  0  0
    1.2796   -3.7057   -2.3548 N   0  0  0  0  0  0  0  0  0  0  0  0
    0.1537   -4.5734   -2.6290 C   0  0  0  0  0  0  0  0  0  0  0  0
    2.3610   -3.9685   -1.5480 C   0  0  0  0  0  0  0  0  0  0  0  0
    2.4885   -5.1338   -0.7012 C   0  0  0  0  0  0  0  0  0  0  0  0
    1.4909   -5.6510   -0.2180 O   0  0  0  0  0  0  0  0  0  0  0  0
    3.7920   -5.5489   -0.4978 N   0  0  0  0  0  0  0  0  0  0  0  0
    4.2526   -6.5299    0.3596 C   0  0  0  0  0  0  0  0  0  0  0  0
    5.6922   -6.8147    0.2728 C   0  0  0  0  0  0  0  0  0  0  0  0
    6.2397   -7.7456    1.0743 C   0  0  0  0  0  0  0  0  0  0  0  0
    5.4312   -8.4139    1.9864 N   0  0  0  0  0  0  0  0  0  0  0  0
    5.7561   -9.3770    2.9063 C   0  0  0  0  0  0  0  0  0  0  0  0
    4.5824   -9.6640    3.5768 C   0  0  0  0  0  0  0  0  0  0  0  0
    4.4091  -10.6202    4.6621 C   0  0  0  0  0  0  0  0  0  0  0  0
    3.1801  -10.6828    5.3324 C   0  0  0  0  0  0  0  0  0  0  0  0
    2.9781  -11.5880    6.3771 C   0  0  0  0  0  0  0  0  0  0  0  0
    4.0025  -12.4475    6.7637 C   0  0  0  0  0  0  0  0  0  0  0  0
    5.2283  -12.3999    6.1077 C   0  0  0  0  0  0  0  0  0  0  0  0
    5.4317  -11.4915    5.0636 C   0  0  0  0  0  0  0  0  0  0  0  0
    3.5467   -8.9020    3.0765 N   0  0  0  0  0  0  0  0  0  0  0  0
    4.0719   -8.1705    2.1182 C   0  0  0  0  0  0  0  0  0  0  0  0
    3.4906   -7.2002    1.2513 C   0  0  0  0  0  0  0  0  0  0  0  0
    3.1831   -2.8584   -1.6895 C   0  0  0  0  0  0  0  0  0  0  0  0
    4.3749   -2.5622   -0.9371 C   0  0  0  0  0  0  0  0  0  0  0  0
    5.4479   -3.0460   -1.2722 O   0  0  0  0  0  0  0  0  0  0  0  0
    4.1877   -1.7277    0.1688 N   0  0  0  0  0  0  0  0  0  0  0  0
    5.3718   -1.2579    0.8753 C   0  0  0  0  0  0  0  0  0  0  0  0
    2.8807   -1.4296    0.7888 C   0  0  0  0  0  0  0  0  0  0  0  0
    2.1396   -0.2215    0.1761 C   0  0  0  0  0  0  0  0  0  0  0  0
    0.7961   -0.6176   -0.3781 N   0  0  0  0  0  4  0  0  0  0  0  0
    0.0022    0.5155   -0.9267 C   0  0  0  0  0  0  0  0  0  0  0  0
    2.9105   -1.1300   -3.1049 H   0  0  0  0  0  0  0  0  0  0  0  0
   -0.3775   -4.1999   -3.5101 H   0  0  0  0  0  0  0  0  0  0  0  0
   -0.5077   -4.5638   -1.7582 H   0  0  0  0  0  0  0  0  0  0  0  0
    0.5290   -5.5804   -2.8293 H   0  0  0  0  0  0  0  0  0  0  0  0
    4.5089   -5.0987   -1.0632 H   0  0  0  0  0  0  0  0  0  0  0  0
    6.3116   -6.2767   -0.4388 H   0  0  0  0  0  0  0  0  0  0  0  0
    7.2918   -8.0011    1.0568 H   0  0  0  0  0  0  0  0  0  0  0  0
    6.7656   -9.7481    3.0048 H   0  0  0  0  0  0  0  0  0  0  0  0
    2.3671  -10.0209    5.0400 H   0  0  0  0  0  0  0  0  0  0  0  0
    2.0206  -11.6225    6.8845 H   0  0  0  0  0  0  0  0  0  0  0  0
    3.8449  -13.1567    7.5720 H   0  0  0  0  0  0  0  0  0  0  0  0
    6.0260  -13.0761    6.4048 H   0  0  0  0  0  0  0  0  0  0  0  0
    6.3977  -11.4872    4.5695 H   0  0  0  0  0  0  0  0  0  0  0  0
    2.4274   -7.0368    1.3722 H   0  0  0  0  0  0  0  0  0  0  0  0
    5.4538   -1.7992    1.8202 H   0  0  0  0  0  0  0  0  0  0  0  0
    5.2629   -0.1901    1.0709 H   0  0  0  0  0  0  0  0  0  0  0  0
    6.2813   -1.4174    0.2956 H   0  0  0  0  0  0  0  0  0  0  0  0
    3.0581   -1.2336    1.8542 H   0  0  0  0  0  0  0  0  0  0  0  0
    2.2599   -2.3314    0.7495 H   0  0  0  0  0  0  0  0  0  0  0  0
    2.7016    0.2414   -0.6408 H   0  0  0  0  0  0  0  0  0  0  0  0
    1.9417    0.5266    0.9502 H   0  0  0  0  0  0  0  0  0  0  0  0
    0.2341   -1.1042    0.3329 H   0  0  0  0  0  0  0  0  0  0  0  0
    0.9009   -1.2997   -1.1535 H   0  0  0  0  0  0  0  0  0  0  0  0
    0.5915    1.0066   -1.7044 H   0  0  0  0  0  0  0  0  0  0  0  0
   -0.2252    1.2004   -0.1079 H   0  0  0  0  0  0  0  0  0  0  0  0
   -0.9154    0.0982   -1.3447 H   0  0  0  0  0  0  0  0  0  0  0  0
 33  1  1  0
  1  2  2  0
  2  3  1  0
  3  4  1  0
  4 34  1  0
  4 35  1  0
  4 36  1  0
  3  5  1  0
  5  6  1  0
  6  7  2  0
  6  8  1  0
  8 37  1  0
  8  9  1  0
  9 10  1  0
 10 38  1  0
 10 11  2  0
 11 39  1  0
 11 12  1  0
 12 13  1  0
 13 40  1  0
 13 14  2  0
 14 15  1  0
 15 16  2  0
 16 41  1  0
 16 17  1  0
 17 42  1  0
 17 18  2  0
 18 43  1  0
 18 19  1  0
 19 44  1  0
 15 20  1  0
 19 20  2  0
 20 45  1  0
 14 21  1  0
 12 22  1  0
 21 22  2  0
  9 23  2  0
 22 23  1  0
 23 46  1  0
  1 24  1  0
  5 24  2  0
 24 25  1  0
 25 26  2  0
 25 27  1  0
 27 28  1  0
 28 47  1  0
 28 48  1  0
 28 49  1  0
 27 29  1  0
 29 50  1  0
 29 51  1  0
 29 30  1  0
 30 52  1  0
 30 53  1  0
 30 31  1  0
 31 54  1  0
 31 55  1  0
 31 32  1  0
 32 56  1  0
 32 57  1  0
 32 58  1  0
M  CHG  1  31   1
M  END
>  <conformer_energy>  (1) 
16.74

>  <ligand_smiles>  (1) 
C[NH2+]CCN(C)C(=O)c1cnn(C)c1C(=O)Nc1ccn2cc(-c3ccccc3)nc2c1

>  <ligand_conf_name>  (1) 
MOL_0_isomer_0_conf_0

>  <ligand_molecule_name>  (1) 
MOL_0_isomer_0

$$$$
