MOL_0_isomer_0_conf_0
     RDKit          3D

 24 24  0  0  0  0  0  0  0  0999 V2000
    4.7082   -0.7244   -0.5548 C   0  0  0  0  0  0  0  0  0  0  0  0
    4.8478    0.3080    0.0930 O   0  0  0  0  0  0  0  0  0  0  0  0
    3.4782   -1.0988   -1.3266 C   0  0  0  0  0  0  0  0  0  0  0  0
    3.5770   -2.2350   -2.2080 C   0  0  0  0  0  0  0  0  0  0  0  0
    4.6569   -2.8928   -2.4176 O   0  0  0  0  0  1  0  0  0  0  0  0
    2.3666   -2.5979   -2.8423 C   0  0  0  0  0  0  0  0  0  0  0  0
    2.2549   -3.7882   -3.7494 C   0  0  0  0  0  0  0  0  0  0  0  0
    1.2553   -1.8819   -2.6561 N   0  0  0  0  0  4  0  0  0  0  0  0
    1.1964   -0.7993   -1.8946 C   0  0  0  0  0  0  0  0  0  0  0  0
    2.2853   -0.3653   -1.1661 C   0  0  0  0  0  0  0  0  0  0  0  0
    2.0591    0.7733   -0.1913 C   0  0  0  0  0  0  0  0  0  0  0  0
    0.8764    1.4929   -0.5047 O   0  0  0  0  0  0  0  0  0  0  0  0
   -0.5496    0.9877    0.1297 P   0  0  0  0  0  5  0  0  0  0  0  0
   -0.3317   -0.4835    0.4592 O   0  0  0  0  0  0  0  0  0  0  0  0
   -1.4899    1.1669   -1.0550 O   0  0  0  0  0  1  0  0  0  0  0  0
   -0.7757    1.9018    1.3136 O   0  0  0  0  0  1  0  0  0  0  0  0
    5.5413   -1.4447   -0.5942 H   0  0  0  0  0  0  0  0  0  0  0  0
    1.2331   -3.9006   -4.1266 H   0  0  0  0  0  0  0  0  0  0  0  0
    2.5103   -4.7068   -3.2115 H   0  0  0  0  0  0  0  0  0  0  0  0
    2.9152   -3.6753   -4.6152 H   0  0  0  0  0  0  0  0  0  0  0  0
    0.3759   -2.1654   -3.0724 H   0  0  0  0  0  0  0  0  0  0  0  0
    0.2194   -0.3367   -1.8788 H   0  0  0  0  0  0  0  0  0  0  0  0
    2.8659    1.5037   -0.2858 H   0  0  0  0  0  0  0  0  0  0  0  0
    2.0336    0.4102    0.8415 H   0  0  0  0  0  0  0  0  0  0  0  0
 17  1  1  0
  1  2  2  0
  1  3  1  0
  3  4  2  0
  4  5  1  0
  4  6  1  0
  6  7  1  0
  7 18  1  0
  7 19  1  0
  7 20  1  0
  6  8  2  0
  8 21  1  0
  8  9  1  0
  9 22  1  0
  3 10  1  0
  9 10  2  0
 10 11  1  0
 11 23  1  0
 11 24  1  0
 11 12  1  0
 12 13  1  0
 13 14  2  0
 13 15  1  0
 13 16  1  0
M  CHG  4   5  -1   8   1  15  -1  16  -1
M  END
>  <conformer_energy>  (1) 
-112.85

>  <ligand_smiles>  (1) 
Cc1[nH+]cc(COP(=O)([O-])[O-])c(C=O)c1[O-]

>  <ligand_conf_name>  (1) 
MOL_0_isomer_0_conf_0

>  <ligand_molecule_name>  (1) 
MOL_0_isomer_0

$$$$
