MOL_0_isomer_0_conf_0
     RDKit          3D

 22 23  0  0  0  0  0  0  0  0999 V2000
    2.1693   -0.0007    1.2151 C   0  0  0  0  0  0  0  0  0  0  0  0
    3.5653   -0.0058    1.2415 C   0  0  0  0  0  0  0  0  0  0  0  0
    4.2810   -0.0095    0.0481 C   0  0  0  0  0  0  0  0  0  0  0  0
    3.5878   -0.0080   -1.1659 C   0  0  0  0  0  0  0  0  0  0  0  0
    4.3126   -0.0117   -2.4465 C   0  0  0  0  0  0  0  0  0  0  0  0
    5.5369   -0.0162   -2.5067 O   0  0  0  0  0  0  0  0  0  0  0  0
    3.5288   -0.0098   -3.5712 N   0  0  0  0  0  0  0  0  0  0  0  0
    2.1675   -0.0048   -3.5419 C   0  0  0  0  0  0  0  0  0  0  0  0
    1.5323   -0.0035   -4.7310 N   0  0  0  0  0  0  0  0  0  0  0  0
    1.4909   -0.0014   -2.4397 N   0  0  0  0  0  0  0  0  0  0  0  0
    2.1893   -0.0029   -1.2159 C   0  0  0  0  0  0  0  0  0  0  0  0
    1.4723    0.0008   -0.0059 C   0  0  0  0  0  0  0  0  0  0  0  0
   -0.0309    0.0063   -0.0110 C   0  0  0  0  0  0  0  0  0  0  0  0
    1.6236    0.0021    2.1567 H   0  0  0  0  0  0  0  0  0  0  0  0
    4.0920   -0.0069    2.1927 H   0  0  0  0  0  0  0  0  0  0  0  0
    5.3681   -0.0134    0.0610 H   0  0  0  0  0  0  0  0  0  0  0  0
    4.0204   -0.0124   -4.4486 H   0  0  0  0  0  0  0  0  0  0  0  0
    2.0030   -0.0060   -5.6213 H   0  0  0  0  0  0  0  0  0  0  0  0
    0.5202    0.0002   -4.7178 H   0  0  0  0  0  0  0  0  0  0  0  0
   -0.4354    0.0086    1.0067 H   0  0  0  0  0  0  0  0  0  0  0  0
   -0.4125   -0.8867   -0.5166 H   0  0  0  0  0  0  0  0  0  0  0  0
   -0.4059    0.9011   -0.5181 H   0  0  0  0  0  0  0  0  0  0  0  0
 14  1  1  0
  1  2  2  0
  2 15  1  0
  2  3  1  0
  3 16  1  0
  3  4  2  0
  4  5  1  0
  5  6  2  0
  5  7  1  0
  7 17  1  0
  7  8  1  0
  8  9  1  0
  9 18  1  0
  9 19  1  0
  8 10  2  0
  4 11  1  0
 10 11  1  0
  1 12  1  0
 11 12  2  0
 12 13  1  0
 13 20  1  0
 13 21  1  0
 13 22  1  0
M  END
>  <conformer_energy>  (1) 
-87.31

>  <ligand_smiles>  (1) 
Cc1cccc2c(=O)[nH]c(N)nc12

>  <ligand_conf_name>  (1) 
MOL_0_isomer_0_conf_0

>  <ligand_molecule_name>  (1) 
MOL_0_isomer_0

$$$$
