MOL_0_isomer_0_conf_0
     RDKit          3D

 54 57  0  0  0  0  0  0  0  0999 V2000
    2.1512    2.0155    6.4287 O   0  0  0  0  0  0  0  0  0  0  0  0
    0.8877    2.1920    5.8027 C   0  0  0  0  0  0  0  0  0  0  0  0
    1.0613    2.2555    4.3091 C   0  0  0  0  0  0  0  0  0  0  0  0
    0.9917    3.4791    3.6341 C   0  0  0  0  0  0  0  0  0  0  0  0
    1.1971    3.5533    2.2512 C   0  0  0  0  0  0  0  0  0  0  0  0
    1.1443    4.8431    1.5461 C   0  0  0  0  0  0  0  0  0  0  0  0
    2.2378    5.2975    0.7903 C   0  0  0  0  0  0  0  0  0  0  0  0
    2.1900    6.5231    0.1209 C   0  0  0  0  0  0  0  0  0  0  0  0
    1.0460    7.3138    0.1956 C   0  0  0  0  0  0  0  0  0  0  0  0
   -0.0493    6.8805    0.9387 C   0  0  0  0  0  0  0  0  0  0  0  0
    0.0003    5.6553    1.6088 C   0  0  0  0  0  0  0  0  0  0  0  0
    1.4676    2.3622    1.5548 C   0  0  0  0  0  0  0  0  0  0  0  0
    1.5389    1.1013    2.1954 C   0  0  0  0  0  0  0  0  0  0  0  0
    1.8598   -0.1769    1.3716 C   0  0  1  0  0  0  0  0  0  0  0  0
    1.7268   -1.5621    2.1461 C   0  0  0  0  0  0  0  0  0  0  0  0
    0.3040   -1.9310    2.6027 C   0  0  0  0  0  0  0  0  0  0  0  0
    2.2795   -2.7657    1.3541 C   0  0  0  0  0  0  0  0  0  0  0  0
    1.0308   -0.2046    0.0445 C   0  0  0  0  0  0  0  0  0  0  0  0
   -0.3938   -0.1634    0.1457 C   0  0  0  0  0  0  0  0  0  0  0  0
   -1.5527   -0.1392    0.2051 N   0  0  0  0  0  0  0  0  0  0  0  0
    1.5997   -0.2083   -1.1941 C   0  0  0  0  0  0  0  0  0  0  0  0
    0.9176   -0.2369   -2.3763 N   0  0  0  0  0  0  0  0  0  0  0  0
    2.9872   -0.1563   -1.3812 O   0  0  0  0  0  0  0  0  0  0  0  0
    3.7251    0.0150   -0.2943 C   0  0  0  0  0  0  0  0  0  0  0  0
    3.3231    0.0432    1.0176 C   0  0  0  0  0  0  0  0  0  0  0  0
    4.5262    0.2683    1.7438 C   0  0  0  0  0  0  0  0  0  0  0  0
    4.7335    0.4108    3.2071 C   0  0  0  0  0  0  0  0  0  0  0  0
    5.5849    0.3654    0.9216 N   0  0  0  0  0  0  0  0  0  0  0  0
    5.0676    0.2029   -0.3094 N   0  0  0  0  0  0  0  0  0  0  0  0
    1.3447    1.0844    3.5870 C   0  0  0  0  0  0  0  0  0  0  0  0
    2.8126    2.4663    5.8756 H   0  0  0  0  0  0  0  0  0  0  0  0
    0.2341    1.3590    6.0815 H   0  0  0  0  0  0  0  0  0  0  0  0
    0.4351    3.1108    6.1899 H   0  0  0  0  0  0  0  0  0  0  0  0
    0.7948    4.3924    4.1941 H   0  0  0  0  0  0  0  0  0  0  0  0
    3.1445    4.6985    0.7272 H   0  0  0  0  0  0  0  0  0  0  0  0
    3.0473    6.8592   -0.4562 H   0  0  0  0  0  0  0  0  0  0  0  0
    1.0077    8.2667   -0.3257 H   0  0  0  0  0  0  0  0  0  0  0  0
   -0.9452    7.4933    0.9953 H   0  0  0  0  0  0  0  0  0  0  0  0
   -0.8707    5.3292    2.1739 H   0  0  0  0  0  0  0  0  0  0  0  0
    1.6336    2.4307    0.4790 H   0  0  0  0  0  0  0  0  0  0  0  0
    2.3388   -1.5054    3.0550 H   0  0  0  0  0  0  0  0  0  0  0  0
    0.3521   -2.7174    3.3653 H   0  0  0  0  0  0  0  0  0  0  0  0
   -0.2978   -2.3309    1.7806 H   0  0  0  0  0  0  0  0  0  0  0  0
   -0.2338   -1.0887    3.0433 H   0  0  0  0  0  0  0  0  0  0  0  0
    1.7385   -2.9184    0.4149 H   0  0  0  0  0  0  0  0  0  0  0  0
    2.1829   -3.6856    1.9424 H   0  0  0  0  0  0  0  0  0  0  0  0
    3.3426   -2.6496    1.1249 H   0  0  0  0  0  0  0  0  0  0  0  0
   -0.0952   -0.2533   -2.4147 H   0  0  0  0  0  0  0  0  0  0  0  0
    1.4500   -0.2165   -3.2375 H   0  0  0  0  0  0  0  0  0  0  0  0
    5.7893    0.2882    3.4722 H   0  0  0  0  0  0  0  0  0  0  0  0
    4.1690   -0.3418    3.7631 H   0  0  0  0  0  0  0  0  0  0  0  0
    4.4185    1.4042    3.5407 H   0  0  0  0  0  0  0  0  0  0  0  0
    5.6877    0.2373   -1.1103 H   0  0  0  0  0  0  0  0  0  0  0  0
    1.4236    0.1598    4.1546 H   0  0  0  0  0  0  0  0  0  0  0  0
 31  1  1  0
  1  2  1  0
  2 32  1  0
  2 33  1  0
  2  3  1  0
  3  4  2  0
  4 34  1  0
  4  5  1  0
  5  6  1  0
  6  7  2  0
  7 35  1  0
  7  8  1  0
  8 36  1  0
  8  9  2  0
  9 37  1  0
  9 10  1  0
 10 38  1  0
  6 11  1  0
 10 11  2  0
 11 39  1  0
  5 12  2  0
 12 40  1  0
 12 13  1  0
 13 14  1  0
 14 15  1  1
 15 41  1  0
 15 16  1  0
 16 42  1  0
 16 43  1  0
 16 44  1  0
 15 17  1  0
 17 45  1  0
 17 46  1  0
 17 47  1  0
 14 18  1  0
 18 19  1  0
 19 20  3  0
 18 21  2  0
 21 22  1  0
 22 48  1  0
 22 49  1  0
 21 23  1  0
 23 24  1  0
 14 25  1  0
 24 25  2  0
 25 26  1  0
 26 27  1  0
 27 50  1  0
 27 51  1  0
 27 52  1  0
 26 28  2  0
 24 29  1  0
 28 29  1  0
 29 53  1  0
  3 30  1  0
 13 30  2  0
 30 54  1  0
M  END
>  <conformer_energy>  (1) 
70.13

>  <ligand_smiles>  (1) 
Cc1n[nH]c2c1[C@](c1cc(CO)cc(-c3ccccc3)c1)(C(C)C)C(C#N)=C(N)O2

>  <ligand_conf_name>  (1) 
MOL_0_isomer_0_conf_0

>  <ligand_molecule_name>  (1) 
MOL_0_isomer_0

$$$$
