MOL_0_isomer_0_conf_0
     RDKit          3D

 41 42  0  0  0  0  0  0  0  0999 V2000
    5.0912   -2.5242    1.4327 O   0  0  0  0  0  0  0  0  0  0  0  0
    4.8185   -2.7335    0.0374 C   0  0  2  0  0  0  0  0  0  0  0  0
    5.4615   -1.6070   -0.7650 C   0  0  0  0  0  0  0  0  0  0  0  0
    4.7305   -0.4007   -0.5565 O   0  0  0  0  0  0  0  0  0  0  0  0
    3.4797   -0.4154   -1.2259 C   0  0  2  0  0  0  0  0  0  0  0  0
    2.5932    0.7299   -0.7355 C   0  0  0  0  0  0  0  0  0  0  0  0
    1.6677    0.0653    0.2730 C   0  0  1  0  0  0  0  0  0  0  0  0
    2.3785    0.0613    1.6755 C   0  0  0  0  0  0  0  0  0  0  0  0
    3.1756   -0.8956    1.9066 O   0  0  0  0  0  0  0  0  0  0  0  0
    1.9615    0.9365    2.4949 O   0  0  0  0  0  1  0  0  0  0  0  0
    0.2506    0.6632    0.3816 C   0  0  0  0  0  0  0  0  0  0  0  0
   -0.7120   -0.0969    1.3315 C   0  0  1  0  0  0  0  0  0  0  0  0
   -0.8032   -1.6283    1.0074 C   0  0  0  0  0  0  0  0  0  0  0  0
   -1.5875   -1.9765    0.0943 O   0  0  0  0  0  0  0  0  0  0  0  0
   -0.0640   -2.3333    1.7786 O   0  0  0  0  0  1  0  0  0  0  0  0
   -0.3097    0.1196    2.7721 N   0  0  0  0  0  4  0  0  0  0  0  0
    1.4855   -1.2687   -0.2525 O   0  0  0  0  0  0  0  0  0  0  0  0
    2.6509   -1.6725   -0.9789 C   0  0  2  0  0  0  0  0  0  0  0  0
    3.3014   -2.8697   -0.2446 C   0  0  2  0  0  0  0  0  0  0  0  0
    2.5275   -3.1631    1.0237 N   0  0  0  0  0  4  0  0  0  0  0  0
    2.6217   -4.4817    1.6415 C   0  0  0  0  0  0  0  0  0  0  0  0
    4.6562   -1.6635    1.6817 H   0  0  0  0  0  0  0  0  0  0  0  0
    5.3137   -3.6771   -0.2176 H   0  0  0  0  0  0  0  0  0  0  0  0
    6.4832   -1.4284   -0.4145 H   0  0  0  0  0  0  0  0  0  0  0  0
    5.5024   -1.8416   -1.8351 H   0  0  0  0  0  0  0  0  0  0  0  0
    3.6882   -0.2912   -2.2956 H   0  0  0  0  0  0  0  0  0  0  0  0
    3.1627    1.5643   -0.3139 H   0  0  0  0  0  0  0  0  0  0  0  0
    2.0051    1.1050   -1.5820 H   0  0  0  0  0  0  0  0  0  0  0  0
    0.2997    1.7201    0.6725 H   0  0  0  0  0  0  0  0  0  0  0  0
   -0.2070    0.6383   -0.6171 H   0  0  0  0  0  0  0  0  0  0  0  0
   -1.7137    0.3399    1.2511 H   0  0  0  0  0  0  0  0  0  0  0  0
    0.0446   -0.8097    3.0708 H   0  0  0  0  0  0  0  0  0  0  0  0
   -1.0556    0.4061    3.3993 H   0  0  0  0  0  0  0  0  0  0  0  0
    0.5333    0.7399    2.8722 H   0  0  0  0  0  0  0  0  0  0  0  0
    2.2760   -2.0305   -1.9461 H   0  0  0  0  0  0  0  0  0  0  0  0
    3.1511   -3.7486   -0.8849 H   0  0  0  0  0  0  0  0  0  0  0  0
    1.5211   -2.8787    0.9324 H   0  0  0  0  0  0  0  0  0  0  0  0
    2.8409   -2.4193    1.6949 H   0  0  0  0  0  0  0  0  0  0  0  0
    3.6691   -4.7131    1.8445 H   0  0  0  0  0  0  0  0  0  0  0  0
    2.1897   -5.2135    0.9550 H   0  0  0  0  0  0  0  0  0  0  0  0
    2.0533   -4.4567    2.5740 H   0  0  0  0  0  0  0  0  0  0  0  0
 22  1  1  0
  1  2  1  0
  2 23  1  6
  2  3  1  0
  3 24  1  0
  3 25  1  0
  3  4  1  0
  4  5  1  0
  5 26  1  6
  5  6  1  0
  6 27  1  0
  6 28  1  0
  6  7  1  0
  7  8  1  0
  8  9  2  0
  8 10  1  0
  7 11  1  1
 11 29  1  0
 11 30  1  0
 11 12  1  0
 12 31  1  1
 12 13  1  0
 13 14  2  0
 13 15  1  0
 12 16  1  0
 16 32  1  0
 16 33  1  0
 16 34  1  0
  7 17  1  0
  5 18  1  0
 17 18  1  0
 18 35  1  6
  2 19  1  0
 18 19  1  0
 19 36  1  6
 19 20  1  0
 20 37  1  0
 20 38  1  0
 20 21  1  0
 21 39  1  0
 21 40  1  0
 21 41  1  0
M  CHG  4  10  -1  15  -1  16   1  20   1
M  END
>  <conformer_energy>  (1) 
-5.63

>  <ligand_smiles>  (1) 
C[NH2+][C@H]1[C@H]2O[C@@](C[C@H]([NH3+])C(=O)[O-])(C(=O)[O-])C[C@H]2OC[C@H]1O

>  <ligand_conf_name>  (1) 
MOL_0_isomer_0_conf_0

>  <ligand_molecule_name>  (1) 
MOL_0_isomer_0

$$$$
