MOL_0_isomer_0_conf_0
     RDKit          3D

 49 52  0  0  0  0  0  0  0  0999 V2000
   11.4735    1.7776    4.1701 C   0  0  0  0  0  0  0  0  0  0  0  0
   11.1361    0.4439    4.4094 C   0  0  0  0  0  0  0  0  0  0  0  0
   10.6577   -0.3530    3.3689 C   0  0  0  0  0  0  0  0  0  0  0  0
   10.5119    0.1969    2.0916 C   0  0  0  0  0  0  0  0  0  0  0  0
    9.9640   -0.8329    0.7408 S   0  0  0  0  0  6  0  0  0  0  0  0
   10.6072   -0.3180   -0.4600 O   0  0  0  0  0  0  0  0  0  0  0  0
   10.2194   -2.2122    1.1336 O   0  0  0  0  0  0  0  0  0  0  0  0
    8.1998   -0.5800    0.6157 C   0  0  0  0  0  0  0  0  0  0  0  0
    7.5765    0.2406    1.4914 N   0  0  0  0  0  2  0  0  0  0  0  0
    6.2660    0.4583    1.3267 C   0  0  0  0  0  0  0  0  0  0  0  0
    5.6753    1.2886    2.0218 O   0  0  0  0  0  0  0  0  0  0  0  0
    5.5899   -0.2649    0.3021 N   0  0  0  0  0  0  0  0  0  0  0  0
    4.1732   -0.0779    0.1471 C   0  0  0  0  0  0  0  0  0  0  0  0
    3.3258   -0.0553    1.2668 C   0  0  0  0  0  0  0  0  0  0  0  0
    1.9383    0.0917    1.1186 C   0  0  0  0  0  0  0  0  0  0  0  0
    1.0933    0.1442    2.2096 O   0  0  0  0  0  0  0  0  0  0  0  0
    1.2901   -0.8045    3.1897 C   0  0  0  0  0  0  0  0  0  0  0  0
    1.1260   -2.1634    2.9012 C   0  0  0  0  0  0  0  0  0  0  0  0
    1.3033   -3.1115    3.9073 C   0  0  0  0  0  0  0  0  0  0  0  0
    1.6310   -2.7015    5.1987 C   0  0  0  0  0  0  0  0  0  0  0  0
    1.7742   -1.3425    5.4895 C   0  0  0  0  0  0  0  0  0  0  0  0
    1.5916   -0.3765    4.4908 C   0  0  0  0  0  0  0  0  0  0  0  0
    1.7745    1.0808    4.8016 C   0  0  0  0  0  0  0  0  0  0  0  0
    1.3828    0.2609   -0.1545 C   0  0  0  0  0  0  0  0  0  0  0  0
   -0.0280    0.4398   -0.3333 C   0  0  0  0  0  0  0  0  0  0  0  0
   -1.1669    0.5788   -0.5140 N   0  0  0  0  0  0  0  0  0  0  0  0
    2.2169    0.2523   -1.2747 C   0  0  0  0  0  0  0  0  0  0  0  0
    3.5927    0.0836   -1.1188 C   0  0  0  0  0  0  0  0  0  0  0  0
    4.3506    0.1686   -2.2231 F   0  0  0  0  0  0  0  0  0  0  0  0
    6.2150   -1.1854   -0.5462 C   0  0  0  0  0  0  0  0  0  0  0  0
    5.6636   -1.9507   -1.3401 O   0  0  0  0  0  0  0  0  0  0  0  0
    7.6705   -1.2847   -0.3931 C   0  0  0  0  0  0  0  0  0  0  0  0
   10.8617    1.5281    1.8442 C   0  0  0  0  0  0  0  0  0  0  0  0
   11.3374    2.3193    2.8901 C   0  0  0  0  0  0  0  0  0  0  0  0
   11.8354    2.3989    4.9845 H   0  0  0  0  0  0  0  0  0  0  0  0
   11.2363    0.0266    5.4071 H   0  0  0  0  0  0  0  0  0  0  0  0
   10.3883   -1.3893    3.5553 H   0  0  0  0  0  0  0  0  0  0  0  0
    3.7558   -0.1645    2.2606 H   0  0  0  0  0  0  0  0  0  0  0  0
    0.8663   -2.4864    1.8976 H   0  0  0  0  0  0  0  0  0  0  0  0
    1.1928   -4.1687    3.6827 H   0  0  0  0  0  0  0  0  0  0  0  0
    1.7815   -3.4408    5.9809 H   0  0  0  0  0  0  0  0  0  0  0  0
    2.0388   -1.0417    6.5007 H   0  0  0  0  0  0  0  0  0  0  0  0
    1.8547    1.2522    5.8804 H   0  0  0  0  0  0  0  0  0  0  0  0
    0.9171    1.6601    4.4433 H   0  0  0  0  0  0  0  0  0  0  0  0
    2.6881    1.4556    4.3292 H   0  0  0  0  0  0  0  0  0  0  0  0
    1.8204    0.3911   -2.2765 H   0  0  0  0  0  0  0  0  0  0  0  0
    8.2153   -1.9382   -1.0593 H   0  0  0  0  0  0  0  0  0  0  0  0
   10.7476    1.9494    0.8482 H   0  0  0  0  0  0  0  0  0  0  0  0
   11.5931    3.3593    2.7073 H   0  0  0  0  0  0  0  0  0  0  0  0
 35  1  1  0
  1  2  2  0
  2 36  1  0
  2  3  1  0
  3 37  1  0
  3  4  2  0
  4  5  1  0
  5  6  2  0
  5  7  2  0
  5  8  1  0
  8  9  1  0
  9 10  1  0
 10 11  2  0
 10 12  1  0
 12 13  1  0
 13 14  2  0
 14 38  1  0
 14 15  1  0
 15 16  1  0
 16 17  1  0
 17 18  2  0
 18 39  1  0
 18 19  1  0
 19 40  1  0
 19 20  2  0
 20 41  1  0
 20 21  1  0
 21 42  1  0
 17 22  1  0
 21 22  2  0
 22 23  1  0
 23 43  1  0
 23 44  1  0
 23 45  1  0
 15 24  2  0
 24 25  1  0
 25 26  3  0
 24 27  1  0
 27 46  1  0
 13 28  1  0
 27 28  2  0
 28 29  1  0
 12 30  1  0
 30 31  2  0
  8 32  2  0
 30 32  1  0
 32 47  1  0
  4 33  1  0
 33 48  1  0
  1 34  1  0
 33 34  2  0
 34 49  1  0
M  CHG  1   9  -1
M  END
>  <conformer_energy>  (1) 
142.66

>  <ligand_smiles>  (1) 
Cc1ccccc1Oc1cc(-n2c(=O)cc(S(=O)(=O)c3ccccc3)[n-]c2=O)c(F)cc1C#N

>  <ligand_conf_name>  (1) 
MOL_0_isomer_0_conf_0

>  <ligand_molecule_name>  (1) 
MOL_0_isomer_0

$$$$
