MOL_0_isomer_0_conf_0
     RDKit          3D

 26 27  0  0  0  0  0  0  0  0999 V2000
    3.3901    0.5009   -1.3612 C   0  0  0  0  0  0  0  0  0  0  0  0
    3.8158   -0.6432   -0.6991 C   0  0  0  0  0  0  0  0  0  0  0  0
    2.9928   -1.2415    0.2585 C   0  0  0  0  0  0  0  0  0  0  0  0
    1.7281   -0.7156    0.5701 C   0  0  0  0  0  0  0  0  0  0  0  0
    0.8750   -1.3333    1.5117 N   0  0  0  0  0  0  0  0  0  0  0  0
    0.7636   -2.6185    2.0542 C   0  0  0  0  0  0  0  0  0  0  0  0
    1.2865   -3.7615    1.4421 C   0  0  0  0  0  0  0  0  0  0  0  0
    1.1799   -5.0102    2.0571 C   0  0  0  0  0  0  0  0  0  0  0  0
    1.8260   -6.4046    1.2780 Cl  0  0  0  0  0  0  0  0  0  0  0  0
    0.5560   -5.1443    3.2928 C   0  0  0  0  0  0  0  0  0  0  0  0
    0.0317   -4.0133    3.9084 C   0  0  0  0  0  0  0  0  0  0  0  0
   -0.7413   -4.1629    5.4402 Cl  0  0  0  0  0  0  0  0  0  0  0  0
    0.1331   -2.7628    3.2991 C   0  0  0  0  0  0  0  0  0  0  0  0
    1.3049    0.4693   -0.0838 C   0  0  0  0  0  0  0  0  0  0  0  0
   -0.0231    1.1409    0.2360 C   0  0  0  0  0  0  0  0  0  0  0  0
   -0.6807    0.6842    1.2316 O   0  0  0  0  0  0  0  0  0  0  0  0
   -0.3830    2.1140   -0.4990 O   0  0  0  0  0  1  0  0  0  0  0  0
    2.1487    1.0536   -1.0517 C   0  0  0  0  0  0  0  0  0  0  0  0
    4.0202    0.9746   -2.1071 H   0  0  0  0  0  0  0  0  0  0  0  0
    4.7896   -1.0695   -0.9181 H   0  0  0  0  0  0  0  0  0  0  0  0
    3.3680   -2.1105    0.7877 H   0  0  0  0  0  0  0  0  0  0  0  0
    0.0877   -0.6914    1.7390 H   0  0  0  0  0  0  0  0  0  0  0  0
    1.7427   -3.6882    0.4597 H   0  0  0  0  0  0  0  0  0  0  0  0
    0.4757   -6.1168    3.7674 H   0  0  0  0  0  0  0  0  0  0  0  0
   -0.2754   -1.8816    3.7907 H   0  0  0  0  0  0  0  0  0  0  0  0
    1.8201    1.9598   -1.5597 H   0  0  0  0  0  0  0  0  0  0  0  0
 19  1  1  0
  1  2  2  0
  2 20  1  0
  2  3  1  0
  3 21  1  0
  3  4  2  0
  4  5  1  0
  5 22  1  0
  5  6  1  0
  6  7  2  0
  7 23  1  0
  7  8  1  0
  8  9  1  0
  8 10  2  0
 10 24  1  0
 10 11  1  0
 11 12  1  0
  6 13  1  0
 11 13  2  0
 13 25  1  0
  4 14  1  0
 14 15  1  0
 15 16  2  0
 15 17  1  0
  1 18  1  0
 14 18  2  0
 18 26  1  0
M  CHG  1  17  -1
M  END
>  <conformer_energy>  (1) 
25.54

>  <ligand_smiles>  (1) 
O=C([O-])c1ccccc1Nc1cc(Cl)cc(Cl)c1

>  <ligand_conf_name>  (1) 
MOL_0_isomer_0_conf_0

>  <ligand_molecule_name>  (1) 
MOL_0_isomer_0

$$$$
