MOL_0_isomer_0_conf_0
     RDKit          3D

 31 32  0  0  0  0  0  0  0  0999 V2000
    3.5329    1.2742   -1.0784 C   0  0  0  0  0  0  0  0  0  0  0  0
    4.3357    0.2363   -0.6365 C   0  0  0  0  0  0  0  0  0  0  0  0
    3.8718   -0.6059    0.3762 C   0  0  0  0  0  0  0  0  0  0  0  0
    2.5985   -0.4517    0.9793 C   0  0  0  0  0  0  0  0  0  0  0  0
    2.3589   -1.3243    2.0566 N   0  0  0  0  0  0  0  0  0  0  0  0
    1.9087   -1.1807    3.3871 C   0  0  0  0  0  0  0  0  0  0  0  0
    1.4512    0.0441    3.8895 C   0  0  0  0  0  0  0  0  0  0  0  0
    0.9821    0.1767    5.2008 C   0  0  0  0  0  0  0  0  0  0  0  0
    0.9678   -0.9190    6.0597 C   0  0  0  0  0  0  0  0  0  0  0  0
    0.4872   -0.7842    7.4698 C   0  0  0  0  0  0  0  0  0  0  0  0
    1.4726   -2.1372    5.5936 C   0  0  0  0  0  0  0  0  0  0  0  0
    1.9535   -2.2932    4.2717 C   0  0  0  0  0  0  0  0  0  0  0  0
    2.5459   -3.6418    3.8756 C   0  0  0  0  0  0  0  0  0  0  0  0
    3.1171   -3.7355    2.7364 O   0  0  0  0  0  0  0  0  0  0  0  0
    2.4689   -4.5941    4.7228 O   0  0  0  0  0  1  0  0  0  0  0  0
    1.7774    0.5859    0.5033 C   0  0  0  0  0  0  0  0  0  0  0  0
    0.3485    0.8376    0.9103 C   0  0  0  0  0  0  0  0  0  0  0  0
    0.1002    1.9919    1.4006 O   0  0  0  0  0  0  0  0  0  0  0  0
   -0.5243   -0.0375    0.6135 O   0  0  0  0  0  1  0  0  0  0  0  0
    2.2699    1.4420   -0.5152 C   0  0  0  0  0  0  0  0  0  0  0  0
    3.8718    1.9449   -1.8593 H   0  0  0  0  0  0  0  0  0  0  0  0
    5.3211    0.0784   -1.0593 H   0  0  0  0  0  0  0  0  0  0  0  0
    4.5219   -1.4025    0.7366 H   0  0  0  0  0  0  0  0  0  0  0  0
    2.7390   -2.2770    1.9217 H   0  0  0  0  0  0  0  0  0  0  0  0
    1.4524    0.9282    3.2617 H   0  0  0  0  0  0  0  0  0  0  0  0
    0.6195    1.1479    5.5235 H   0  0  0  0  0  0  0  0  0  0  0  0
   -0.2776   -0.0045    7.5504 H   0  0  0  0  0  0  0  0  0  0  0  0
    1.3227   -0.5274    8.1282 H   0  0  0  0  0  0  0  0  0  0  0  0
    0.0349   -1.7184    7.8194 H   0  0  0  0  0  0  0  0  0  0  0  0
    1.5066   -2.9988    6.2592 H   0  0  0  0  0  0  0  0  0  0  0  0
    1.6215    2.2423   -0.8695 H   0  0  0  0  0  0  0  0  0  0  0  0
 21  1  1  0
  1  2  2  0
  2 22  1  0
  2  3  1  0
  3 23  1  0
  3  4  2  0
  4  5  1  0
  5 24  1  0
  5  6  1  0
  6  7  2  0
  7 25  1  0
  7  8  1  0
  8 26  1  0
  8  9  2  0
  9 10  1  0
 10 27  1  0
 10 28  1  0
 10 29  1  0
  9 11  1  0
 11 30  1  0
  6 12  1  0
 11 12  2  0
 12 13  1  0
 13 14  2  0
 13 15  1  0
  4 16  1  0
 16 17  1  0
 17 18  2  0
 17 19  1  0
  1 20  1  0
 16 20  2  0
 20 31  1  0
M  CHG  2  15  -1  19  -1
M  END
>  <conformer_energy>  (1) 
131.66

>  <ligand_smiles>  (1) 
Cc1ccc(Nc2ccccc2C(=O)[O-])c(C(=O)[O-])c1

>  <ligand_conf_name>  (1) 
MOL_0_isomer_0_conf_0

>  <ligand_molecule_name>  (1) 
MOL_0_isomer_0

$$$$
