MOL_0_isomer_0_conf_0
     RDKit          3D

 48 52  0  0  0  0  0  0  0  0999 V2000
    4.3171   -2.7068   -1.6277 C   0  0  0  0  0  0  0  0  0  0  0  0
    4.6088   -3.9305   -1.1493 N   0  0  0  0  0  0  0  0  0  0  0  0
    4.3827   -4.1484    0.1564 C   0  0  0  0  0  0  0  0  0  0  0  0
    4.7267   -5.4158    0.6116 N   0  0  0  0  0  0  0  0  0  0  0  0
    4.6528   -6.0569    1.8545 C   0  0  0  0  0  0  0  0  0  0  0  0
    4.0508   -5.5020    2.9868 C   0  0  0  0  0  0  0  0  0  0  0  0
    4.0328   -6.1875    4.2102 C   0  0  0  0  0  0  0  0  0  0  0  0
    4.6209   -7.4525    4.3423 C   0  0  0  0  0  0  0  0  0  0  0  0
    4.6057   -8.1911    5.6669 C   0  0  0  0  0  0  0  0  0  0  0  0
    4.0464   -7.6096    6.6501 O   0  0  0  0  0  0  0  0  0  0  0  0
    5.1553   -9.3380    5.6967 O   0  0  0  0  0  1  0  0  0  0  0  0
    5.2249   -8.0118    3.2096 C   0  0  0  0  0  0  0  0  0  0  0  0
    5.2406   -7.3248    1.9893 C   0  0  0  0  0  0  0  0  0  0  0  0
    3.8905   -3.2096    0.9742 N   0  0  0  0  0  0  0  0  0  0  0  0
    3.5988   -1.9917    0.4675 C   0  0  0  0  0  0  0  0  0  0  0  0
    3.8189   -1.6823   -0.8580 C   0  0  0  0  0  0  0  0  0  0  0  0
    3.5211   -0.3285   -1.4039 C   0  0  0  0  0  0  0  0  0  0  0  0
    2.0930   -0.0467   -1.3733 N   0  0  0  0  0  0  0  0  0  0  0  0
    1.4901    0.0770   -0.2372 C   0  0  0  0  0  0  0  0  0  0  0  0
    0.0251    0.3129   -0.2857 C   0  0  0  0  0  0  0  0  0  0  0  0
   -0.8478   -0.5271    0.4039 C   0  0  0  0  0  0  0  0  0  0  0  0
   -0.3828   -1.5532    1.1295 F   0  0  0  0  0  0  0  0  0  0  0  0
   -2.2259   -0.3232    0.3498 C   0  0  0  0  0  0  0  0  0  0  0  0
   -2.7432    0.7302   -0.4049 C   0  0  0  0  0  0  0  0  0  0  0  0
   -1.8759    1.5744   -1.1001 C   0  0  0  0  0  0  0  0  0  0  0  0
   -0.4984    1.3614   -1.0397 C   0  0  0  0  0  0  0  0  0  0  0  0
    0.3056    2.2167   -1.6880 F   0  0  0  0  0  0  0  0  0  0  0  0
    2.1366   -0.0105    1.1156 C   0  0  0  0  0  0  0  0  0  0  0  0
    1.7380    0.9364    2.0791 C   0  0  0  0  0  0  0  0  0  0  0  0
    2.2468    0.8796    3.3734 C   0  0  0  0  0  0  0  0  0  0  0  0
    1.7447    2.0419    4.5380 Cl  0  0  0  0  0  0  0  0  0  0  0  0
    3.1539   -0.1087    3.7264 C   0  0  0  0  0  0  0  0  0  0  0  0
    3.5685   -1.0364    2.7678 C   0  0  0  0  0  0  0  0  0  0  0  0
    3.0857   -1.0058    1.4398 C   0  0  0  0  0  0  0  0  0  0  0  0
    4.5079   -2.5769   -2.6891 H   0  0  0  0  0  0  0  0  0  0  0  0
    5.1026   -5.9574   -0.1506 H   0  0  0  0  0  0  0  0  0  0  0  0
    3.5709   -4.5306    2.9497 H   0  0  0  0  0  0  0  0  0  0  0  0
    3.5540   -5.7338    5.0767 H   0  0  0  0  0  0  0  0  0  0  0  0
    5.6893   -8.9936    3.2879 H   0  0  0  0  0  0  0  0  0  0  0  0
    5.7282   -7.7998    1.1431 H   0  0  0  0  0  0  0  0  0  0  0  0
    3.8510   -0.2675   -2.4480 H   0  0  0  0  0  0  0  0  0  0  0  0
    4.0961    0.4435   -0.8762 H   0  0  0  0  0  0  0  0  0  0  0  0
   -2.8857   -0.9934    0.8941 H   0  0  0  0  0  0  0  0  0  0  0  0
   -3.8176    0.8911   -0.4518 H   0  0  0  0  0  0  0  0  0  0  0  0
   -2.2620    2.4012   -1.6892 H   0  0  0  0  0  0  0  0  0  0  0  0
    1.0334    1.7242    1.8264 H   0  0  0  0  0  0  0  0  0  0  0  0
    3.5482   -0.1705    4.7377 H   0  0  0  0  0  0  0  0  0  0  0  0
    4.2877   -1.8023    3.0644 H   0  0  0  0  0  0  0  0  0  0  0  0
 35  1  1  0
  1  2  2  0
  2  3  1  0
  3  4  1  0
  4 36  1  0
  4  5  1  0
  5  6  2  0
  6 37  1  0
  6  7  1  0
  7 38  1  0
  7  8  2  0
  8  9  1  0
  9 10  2  0
  9 11  1  0
  8 12  1  0
 12 39  1  0
  5 13  1  0
 12 13  2  0
 13 40  1  0
  3 14  2  0
 14 15  1  0
  1 16  1  0
 15 16  2  0
 16 17  1  0
 17 41  1  0
 17 42  1  0
 17 18  1  0
 18 19  2  0
 19 20  1  0
 20 21  2  0
 21 22  1  0
 21 23  1  0
 23 43  1  0
 23 24  2  0
 24 44  1  0
 24 25  1  0
 25 45  1  0
 20 26  1  0
 25 26  2  0
 26 27  1  0
 19 28  1  0
 28 29  1  0
 29 46  1  0
 29 30  2  0
 30 31  1  0
 30 32  1  0
 32 47  1  0
 32 33  2  0
 33 48  1  0
 28 34  2  0
 15 34  1  0
 33 34  1  0
M  CHG  1  11  -1
M  END
>  <conformer_energy>  (1) 
32.69

>  <ligand_smiles>  (1) 
O=C([O-])c1ccc(Nc2ncc3c(n2)-c2ccc(Cl)cc2C(c2c(F)cccc2F)=NC3)cc1

>  <ligand_conf_name>  (1) 
MOL_0_isomer_0_conf_0

>  <ligand_molecule_name>  (1) 
MOL_0_isomer_0

$$$$
