MOL_0_isomer_0_conf_0
     RDKit          3D

 58 63  0  0  0  0  0  0  0  0999 V2000
    2.0082    8.4138   -4.7943 C   0  0  0  0  0  0  0  0  0  0  0  0
    1.9817    8.5764   -6.1379 N   0  0  0  0  0  0  0  0  0  0  0  0
    2.9881    8.0150   -6.8441 C   0  0  0  0  0  0  0  0  0  0  0  0
    4.0246    7.2853   -6.2531 C   0  0  0  0  0  0  0  0  0  0  0  0
    4.0013    7.1183   -4.8720 C   0  0  0  0  0  0  0  0  0  0  0  0
    5.0215    6.4334   -4.2515 O   0  0  0  0  0  0  0  0  0  0  0  0
    4.6492    5.2408   -3.6768 C   0  0  0  0  0  0  0  0  0  0  0  0
    4.2310    4.1628   -4.4550 C   0  0  0  0  0  0  0  0  0  0  0  0
    3.9087    2.9498   -3.8373 C   0  0  0  0  0  0  0  0  0  0  0  0
    4.0074    2.8035   -2.4451 C   0  0  0  0  0  0  0  0  0  0  0  0
    3.6674    1.5470   -1.9078 N   0  0  0  0  0  0  0  0  0  0  0  0
    3.6274    1.1859   -0.5781 C   0  0  0  0  0  0  0  0  0  0  0  0
    3.8257    1.8916    0.3997 O   0  0  0  0  0  0  0  0  0  0  0  0
    3.2701   -0.2555   -0.3717 C   0  0  0  0  0  0  0  0  0  0  0  0
    1.8297   -0.5975   -0.6032 C   0  0  0  0  0  0  0  0  0  0  0  0
    1.4869   -0.9243   -1.7316 O   0  0  0  0  0  0  0  0  0  0  0  0
    1.0476   -0.4709    0.5244 N   0  0  0  0  0  0  0  0  0  0  0  0
   -0.3348   -0.7165    0.6433 C   0  0  0  0  0  0  0  0  0  0  0  0
   -1.1438   -1.1484   -0.4132 C   0  0  0  0  0  0  0  0  0  0  0  0
   -2.5118   -1.3669   -0.2132 C   0  0  0  0  0  0  0  0  0  0  0  0
   -3.0679   -1.1569    1.0418 C   0  0  0  0  0  0  0  0  0  0  0  0
   -4.3748   -1.3754    1.2330 F   0  0  0  0  0  0  0  0  0  0  0  0
   -2.2818   -0.7292    2.1037 C   0  0  0  0  0  0  0  0  0  0  0  0
   -0.9155   -0.5085    1.9041 C   0  0  0  0  0  0  0  0  0  0  0  0
    4.3188   -1.2972   -0.7721 C   0  0  0  0  0  0  0  0  0  0  0  0
    4.0467   -1.0524    0.6782 C   0  0  0  0  0  0  0  0  0  0  0  0
    4.4423    3.8860   -1.6775 C   0  0  0  0  0  0  0  0  0  0  0  0
    4.7674    5.0915   -2.2980 C   0  0  0  0  0  0  0  0  0  0  0  0
    5.1823    6.1207   -1.5436 F   0  0  0  0  0  0  0  0  0  0  0  0
    2.9861    7.7043   -4.1184 C   0  0  0  0  0  0  0  0  0  0  0  0
    5.0500    6.7157   -6.9836 O   0  0  0  0  0  0  0  0  0  0  0  0
    5.0197    6.8723   -8.3594 C   0  0  0  0  0  0  0  0  0  0  0  0
    6.0491    6.2807   -9.0906 C   0  0  0  0  0  0  0  0  0  0  0  0
    6.0612    6.3997  -10.4814 C   0  0  0  0  0  0  0  0  0  0  0  0
    5.0493    7.1090  -11.1329 C   0  0  0  0  0  0  0  0  0  0  0  0
    4.0195    7.7048  -10.3978 C   0  0  0  0  0  0  0  0  0  0  0  0
    3.9988    7.5914   -9.0070 C   0  0  0  0  0  0  0  0  0  0  0  0
    2.9930    8.1595   -8.2309 N   0  0  0  0  0  0  0  0  0  0  0  0
    1.1930    8.8910   -4.2548 H   0  0  0  0  0  0  0  0  0  0  0  0
    4.1630    4.2534   -5.5359 H   0  0  0  0  0  0  0  0  0  0  0  0
    3.5820    2.1206   -4.4635 H   0  0  0  0  0  0  0  0  0  0  0  0
    3.3896    0.8291   -2.5704 H   0  0  0  0  0  0  0  0  0  0  0  0
    1.5196   -0.1446    1.3611 H   0  0  0  0  0  0  0  0  0  0  0  0
   -0.7431   -1.3235   -1.4073 H   0  0  0  0  0  0  0  0  0  0  0  0
   -3.1417   -1.7006   -1.0323 H   0  0  0  0  0  0  0  0  0  0  0  0
   -2.7352   -0.5715    3.0776 H   0  0  0  0  0  0  0  0  0  0  0  0
   -0.3159   -0.1718    2.7464 H   0  0  0  0  0  0  0  0  0  0  0  0
    5.2671   -0.9537   -1.1721 H   0  0  0  0  0  0  0  0  0  0  0  0
    3.9736   -2.2299   -1.2065 H   0  0  0  0  0  0  0  0  0  0  0  0
    3.5359   -1.8339    1.2296 H   0  0  0  0  0  0  0  0  0  0  0  0
    4.8030   -0.5326    1.2581 H   0  0  0  0  0  0  0  0  0  0  0  0
    4.5495    3.8316   -0.6004 H   0  0  0  0  0  0  0  0  0  0  0  0
    2.9618    7.6207   -3.0369 H   0  0  0  0  0  0  0  0  0  0  0  0
    6.8343    5.7306   -8.5812 H   0  0  0  0  0  0  0  0  0  0  0  0
    6.8602    5.9405  -11.0592 H   0  0  0  0  0  0  0  0  0  0  0  0
    5.0612    7.1978  -12.2179 H   0  0  0  0  0  0  0  0  0  0  0  0
    3.2389    8.2529  -10.9181 H   0  0  0  0  0  0  0  0  0  0  0  0
    2.2366    8.6927   -8.6233 H   0  0  0  0  0  0  0  0  0  0  0  0
 39  1  1  0
  1  2  2  0
  2  3  1  0
  3  4  2  0
  4  5  1  0
  5  6  1  0
  6  7  1  0
  7  8  2  0
  8 40  1  0
  8  9  1  0
  9 41  1  0
  9 10  2  0
 10 11  1  0
 11 42  1  0
 11 12  1  0
 12 13  2  0
 12 14  1  0
 14 15  1  0
 15 16  2  0
 15 17  1  0
 17 43  1  0
 17 18  1  0
 18 19  2  0
 19 44  1  0
 19 20  1  0
 20 45  1  0
 20 21  2  0
 21 22  1  0
 21 23  1  0
 23 46  1  0
 18 24  1  0
 23 24  2  0
 24 47  1  0
 14 25  1  0
 25 48  1  0
 25 49  1  0
 14 26  1  0
 25 26  1  0
 26 50  1  0
 26 51  1  0
 10 27  1  0
 27 52  1  0
  7 28  1  0
 27 28  2  0
 28 29  1  0
  1 30  1  0
  5 30  2  0
 30 53  1  0
  4 31  1  0
 31 32  1  0
 32 33  2  0
 33 54  1  0
 33 34  1  0
 34 55  1  0
 34 35  2  0
 35 56  1  0
 35 36  1  0
 36 57  1  0
 32 37  1  0
 36 37  2  0
  3 38  1  0
 37 38  1  0
 38 58  1  0
M  END
>  <conformer_energy>  (1) 
52.00

>  <ligand_smiles>  (1) 
O=C(Nc1ccc(F)cc1)C1(C(=O)Nc2ccc(Oc3ccnc4c3Oc3ccccc3N4)c(F)c2)CC1

>  <ligand_conf_name>  (1) 
MOL_0_isomer_0_conf_0

>  <ligand_molecule_name>  (1) 
MOL_0_isomer_0

$$$$
