MOL_0_isomer_0_conf_0
     RDKit          3D

 55 57  0  0  0  0  0  0  0  0999 V2000
    4.7939   -8.4829   -7.5241 C   0  0  0  0  0  0  0  0  0  0  0  0
    4.9636   -7.5797   -6.4727 C   0  0  0  0  0  0  0  0  0  0  0  0
    4.0186   -6.5674   -6.2379 C   0  0  0  0  0  0  0  0  0  0  0  0
    4.1370   -5.6549   -5.2200 O   0  0  0  0  0  0  0  0  0  0  0  0
    5.2890   -5.7185   -4.3858 C   0  0  0  0  0  0  0  0  0  0  0  0
    2.8857   -6.4728   -7.0808 C   0  0  0  0  0  0  0  0  0  0  0  0
    1.7988   -5.4454   -6.9476 C   0  0  0  0  0  0  0  0  0  0  0  0
    0.8626   -5.4263   -7.7421 O   0  0  0  0  0  0  0  0  0  0  0  0
    1.8941   -4.5453   -5.9176 N   0  0  0  0  0  0  0  0  0  0  0  0
    0.9091   -3.5160   -5.7089 C   0  0  0  0  0  0  0  0  0  0  0  0
    1.2509   -2.6934   -4.4948 C   0  0  0  0  0  0  0  0  0  0  0  0
    2.1255   -1.6032   -4.6006 C   0  0  0  0  0  0  0  0  0  0  0  0
    2.4807   -0.8675   -3.4675 C   0  0  0  0  0  0  0  0  0  0  0  0
    1.9658   -1.2103   -2.2120 C   0  0  0  0  0  0  0  0  0  0  0  0
    2.3314   -0.4293   -1.0344 C   0  0  0  0  0  0  0  0  0  0  0  0
    3.6289   -0.2552   -0.7394 N   0  0  0  0  0  0  0  0  0  0  0  0
    3.6288    0.4201    0.4245 N   0  0  0  0  0  0  0  0  0  0  0  0
    4.8882    0.6910    1.1006 C   0  0  1  0  0  0  0  0  0  0  0  0
    5.9663   -0.3623    0.8231 C   0  0  0  0  0  0  0  0  0  0  0  0
    5.3741    2.0792    0.7491 C   0  0  0  0  0  0  0  0  0  0  0  0
    4.4827    3.0362    1.0958 F   0  0  0  0  0  0  0  0  0  0  0  0
    6.5127    2.3607    1.4361 F   0  0  0  0  0  0  0  0  0  0  0  0
    5.6593    2.2309   -0.5609 F   0  0  0  0  0  0  0  0  0  0  0  0
    2.3648    0.7242    0.8664 C   0  0  0  0  0  0  0  0  0  0  0  0
    2.1135    1.4127    1.9992 N   0  0  0  0  0  0  0  0  0  0  0  0
    1.4857    0.2096   -0.0747 C   0  0  0  0  0  0  0  0  0  0  0  0
    0.0402    0.3486   -0.0075 C   0  0  0  0  0  0  0  0  0  0  0  0
   -0.5693    0.5909    1.0321 O   0  0  0  0  0  0  0  0  0  0  0  0
   -0.6503    0.2496   -1.1806 N   0  0  0  0  0  0  0  0  0  0  0  0
    1.1105   -2.3132   -2.0989 C   0  0  0  0  0  0  0  0  0  0  0  0
    0.7565   -3.0494   -3.2326 C   0  0  0  0  0  0  0  0  0  0  0  0
    2.7323   -7.3909   -8.1347 C   0  0  0  0  0  0  0  0  0  0  0  0
    3.6815   -8.3800   -8.3442 C   0  0  0  0  0  0  0  0  0  0  0  0
    3.5230   -9.2482   -9.3511 F   0  0  0  0  0  0  0  0  0  0  0  0
    5.5237   -9.2659   -7.7070 H   0  0  0  0  0  0  0  0  0  0  0  0
    5.8479   -7.6961   -5.8540 H   0  0  0  0  0  0  0  0  0  0  0  0
    5.2132   -4.9093   -3.6530 H   0  0  0  0  0  0  0  0  0  0  0  0
    6.2045   -5.5587   -4.9645 H   0  0  0  0  0  0  0  0  0  0  0  0
    5.3241   -6.6639   -3.8350 H   0  0  0  0  0  0  0  0  0  0  0  0
    2.6905   -4.6019   -5.2908 H   0  0  0  0  0  0  0  0  0  0  0  0
   -0.0755   -3.9856   -5.5989 H   0  0  0  0  0  0  0  0  0  0  0  0
    0.8631   -2.8854   -6.6047 H   0  0  0  0  0  0  0  0  0  0  0  0
    2.5447   -1.3285   -5.5668 H   0  0  0  0  0  0  0  0  0  0  0  0
    3.1681   -0.0291   -3.5650 H   0  0  0  0  0  0  0  0  0  0  0  0
    4.6765    0.6523    2.1761 H   0  0  0  0  0  0  0  0  0  0  0  0
    5.6015   -1.3678    1.0606 H   0  0  0  0  0  0  0  0  0  0  0  0
    6.8543   -0.1760    1.4365 H   0  0  0  0  0  0  0  0  0  0  0  0
    6.2801   -0.3568   -0.2267 H   0  0  0  0  0  0  0  0  0  0  0  0
    1.1413    1.5646    2.2859 H   0  0  0  0  0  0  0  0  0  0  0  0
    2.7924    1.8760    2.5938 H   0  0  0  0  0  0  0  0  0  0  0  0
   -0.2133    0.1262   -2.0821 H   0  0  0  0  0  0  0  0  0  0  0  0
   -1.6528    0.3672   -1.1410 H   0  0  0  0  0  0  0  0  0  0  0  0
    0.7230   -2.6149   -1.1279 H   0  0  0  0  0  0  0  0  0  0  0  0
    0.1009   -3.9117   -3.1251 H   0  0  0  0  0  0  0  0  0  0  0  0
    1.8731   -7.3426   -8.7993 H   0  0  0  0  0  0  0  0  0  0  0  0
 35  1  1  0
  1  2  2  0
  2 36  1  0
  2  3  1  0
  3  4  1  0
  4  5  1  0
  5 37  1  0
  5 38  1  0
  5 39  1  0
  3  6  2  0
  6  7  1  0
  7  8  2  0
  7  9  1  0
  9 40  1  0
  9 10  1  0
 10 41  1  0
 10 42  1  0
 10 11  1  0
 11 12  2  0
 12 43  1  0
 12 13  1  0
 13 44  1  0
 13 14  2  0
 14 15  1  0
 15 16  2  0
 16 17  1  0
 17 18  1  0
 18 45  1  1
 18 19  1  0
 19 46  1  0
 19 47  1  0
 19 48  1  0
 18 20  1  0
 20 21  1  0
 20 22  1  0
 20 23  1  0
 17 24  1  0
 24 25  1  0
 25 49  1  0
 25 50  1  0
 15 26  1  0
 24 26  2  0
 26 27  1  0
 27 28  2  0
 27 29  1  0
 29 51  1  0
 29 52  1  0
 14 30  1  0
 30 53  1  0
 11 31  1  0
 30 31  2  0
 31 54  1  0
  6 32  1  0
 32 55  1  0
  1 33  1  0
 32 33  2  0
 33 34  1  0
M  END
>  <conformer_energy>  (1) 
21.21

>  <ligand_smiles>  (1) 
COc1ccc(F)cc1C(=O)NCc1ccc(-c2nn([C@@H](C)C(F)(F)F)c(N)c2C(N)=O)cc1

>  <ligand_conf_name>  (1) 
MOL_0_isomer_0_conf_0

>  <ligand_molecule_name>  (1) 
MOL_0_isomer_0

$$$$
