MOL_0_isomer_0_conf_0
     RDKit          3D

 27 26  0  0  0  0  0  0  0  0999 V2000
    1.3970   -3.7211   -2.1565 O   0  0  0  0  0  0  0  0  0  0  0  0
    2.0633   -2.6758   -1.4601 C   0  0  0  0  0  0  0  0  0  0  0  0
    1.6286   -2.6147    0.0134 C   0  0  1  0  0  0  0  0  0  0  0  0
    2.1750   -3.8051    0.8401 C   0  0  0  0  0  0  0  0  0  0  0  0
    1.6539   -5.1718    0.4217 C   0  0  0  0  0  0  0  0  0  0  0  0
    2.0989   -1.3041    0.6866 C   0  0  0  0  0  0  0  0  0  0  0  0
    1.5551    0.0008    0.0900 C   0  0  0  0  0  0  0  0  0  0  0  0
    0.0319    0.0996   -0.0152 C   0  0  0  0  0  0  0  0  0  0  0  0
   -0.6773   -0.0181    1.3249 C   0  0  0  0  0  0  0  0  0  0  0  0
    0.4413   -3.5560   -2.0869 H   0  0  0  0  0  0  0  0  0  0  0  0
    3.1421   -2.8429   -1.5440 H   0  0  0  0  0  0  0  0  0  0  0  0
    1.8286   -1.7506   -1.9923 H   0  0  0  0  0  0  0  0  0  0  0  0
    0.5342   -2.6697    0.0614 H   0  0  0  0  0  0  0  0  0  0  0  0
    1.8997   -3.6570    1.8923 H   0  0  0  0  0  0  0  0  0  0  0  0
    3.2715   -3.8143    0.8039 H   0  0  0  0  0  0  0  0  0  0  0  0
    2.0799   -5.4899   -0.5336 H   0  0  0  0  0  0  0  0  0  0  0  0
    1.9382   -5.9228    1.1663 H   0  0  0  0  0  0  0  0  0  0  0  0
    0.5625   -5.1728    0.3415 H   0  0  0  0  0  0  0  0  0  0  0  0
    1.8315   -1.3319    1.7507 H   0  0  0  0  0  0  0  0  0  0  0  0
    3.1957   -1.2592    0.6563 H   0  0  0  0  0  0  0  0  0  0  0  0
    1.9198    0.8332    0.7057 H   0  0  0  0  0  0  0  0  0  0  0  0
    1.9875    0.1603   -0.9042 H   0  0  0  0  0  0  0  0  0  0  0  0
   -0.3541   -0.6601   -0.7034 H   0  0  0  0  0  0  0  0  0  0  0  0
   -0.2199    1.0714   -0.4572 H   0  0  0  0  0  0  0  0  0  0  0  0
   -0.2999    0.7242    2.0353 H   0  0  0  0  0  0  0  0  0  0  0  0
   -0.5479   -1.0125    1.7621 H   0  0  0  0  0  0  0  0  0  0  0  0
   -1.7514    0.1509    1.1975 H   0  0  0  0  0  0  0  0  0  0  0  0
 10  1  1  0
  1  2  1  0
  2 11  1  0
  2 12  1  0
  2  3  1  0
  3 13  1  6
  3  4  1  0
  4 14  1  0
  4 15  1  0
  4  5  1  0
  5 16  1  0
  5 17  1  0
  5 18  1  0
  3  6  1  0
  6 19  1  0
  6 20  1  0
  6  7  1  0
  7 21  1  0
  7 22  1  0
  7  8  1  0
  8 23  1  0
  8 24  1  0
  8  9  1  0
  9 25  1  0
  9 26  1  0
  9 27  1  0
M  END
>  <conformer_energy>  (1) 
6.84

>  <ligand_smiles>  (1) 
CCCC[C@H](CC)CO

>  <ligand_conf_name>  (1) 
MOL_0_isomer_0_conf_0

>  <ligand_molecule_name>  (1) 
MOL_0_isomer_0

$$$$
