MOL_0_isomer_0_conf_0
     RDKit          3D

 27 28  0  0  0  0  0  0  0  0999 V2000
    0.0258   -0.7631    1.6141 O   0  0  0  0  0  0  0  0  0  0  0  0
    0.0991   -0.4639    0.2252 C   0  0  0  0  0  0  0  0  0  0  0  0
    1.4733    0.1272   -0.1513 C   0  0  1  0  0  0  0  0  0  0  0  0
    1.7424    0.1326   -1.6118 N   0  0  0  0  0  4  0  0  0  0  0  0
    1.5876   -0.9182   -2.5140 C   0  0  0  0  0  0  0  0  0  0  0  0
    2.0652   -0.4825   -3.7199 C   0  0  0  0  0  0  0  0  0  0  0  0
    2.5179    0.7946   -3.5138 N   0  0  0  0  0  0  0  0  0  0  0  0
    2.3362    1.1665   -2.2419 C   0  0  0  0  0  0  0  0  0  0  0  0
    2.7386    2.4613   -1.5944 C   0  0  2  0  0  0  0  0  0  0  0  0
    3.9707    2.9357   -2.1385 O   0  0  0  0  0  0  0  0  0  0  0  0
    2.8396    2.2994   -0.0760 C   0  0  1  0  0  0  0  0  0  0  0  0
    2.9265    3.6052    0.5064 O   0  0  0  0  0  0  0  0  0  0  0  0
    1.6104    1.5526    0.4672 C   0  0  2  0  0  0  0  0  0  0  0  0
    1.6806    1.5159    1.8990 O   0  0  0  0  0  0  0  0  0  0  0  0
    0.0133    0.0754    2.1188 H   0  0  0  0  0  0  0  0  0  0  0  0
   -0.0751   -1.4040   -0.3050 H   0  0  0  0  0  0  0  0  0  0  0  0
   -0.7188    0.2138   -0.0418 H   0  0  0  0  0  0  0  0  0  0  0  0
    2.2486   -0.5084    0.2986 H   0  0  0  0  0  0  0  0  0  0  0  0
    1.1685   -1.8542   -2.1837 H   0  0  0  0  0  0  0  0  0  0  0  0
    2.1652   -0.9211   -4.6973 H   0  0  0  0  0  0  0  0  0  0  0  0
    2.9923    1.3904   -4.1921 H   0  0  0  0  0  0  0  0  0  0  0  0
    1.9544    3.1740   -1.8720 H   0  0  0  0  0  0  0  0  0  0  0  0
    4.2089    3.7277   -1.6116 H   0  0  0  0  0  0  0  0  0  0  0  0
    3.7607    1.7738    0.2022 H   0  0  0  0  0  0  0  0  0  0  0  0
    2.7063    3.5235    1.4578 H   0  0  0  0  0  0  0  0  0  0  0  0
    0.7166    2.1428    0.2283 H   0  0  0  0  0  0  0  0  0  0  0  0
    2.4582    0.9986    2.1870 H   0  0  0  0  0  0  0  0  0  0  0  0
 15  1  1  0
  1  2  1  0
  2 16  1  0
  2 17  1  0
  2  3  1  0
  3 18  1  1
  3  4  1  0
  4  5  1  0
  5 19  1  0
  5  6  2  0
  6 20  1  0
  6  7  1  0
  7 21  1  0
  4  8  2  0
  7  8  1  0
  8  9  1  0
  9 22  1  1
  9 10  1  0
 10 23  1  0
  9 11  1  0
 11 24  1  6
 11 12  1  0
 12 25  1  0
  3 13  1  0
 11 13  1  0
 13 26  1  1
 13 14  1  0
 14 27  1  0
M  CHG  1   4   1
M  END
>  <conformer_energy>  (1) 
156.89

>  <ligand_smiles>  (1) 
OC[C@@H]1[C@@H](O)[C@H](O)[C@@H](O)c2[nH]cc[n+]21

>  <ligand_conf_name>  (1) 
MOL_0_isomer_0_conf_0

>  <ligand_molecule_name>  (1) 
MOL_0_isomer_0

$$$$
