MOL_0_isomer_0_conf_0
     RDKit          3D

 43 46  0  0  0  0  0  0  0  0999 V2000
    4.9021    2.9929    3.4392 C   0  0  0  0  0  0  0  0  0  0  0  0
    5.6942    3.8827    2.8081 N   0  0  0  0  0  0  0  0  0  0  0  0
    5.7882    3.7658    1.4673 C   0  0  0  0  0  0  0  0  0  0  0  0
    5.1220    2.8004    0.7292 C   0  0  0  0  0  0  0  0  0  0  0  0
    4.3071    1.8792    1.3974 C   0  0  0  0  0  0  0  0  0  0  0  0
    3.5749    0.8313    0.6640 C   0  0  0  0  0  0  0  0  0  0  0  0
    4.1956   -0.1699   -0.0894 C   0  0  0  0  0  0  0  0  0  0  0  0
    5.6503   -0.3544   -0.2299 C   0  0  0  0  0  0  0  0  0  0  0  0
    6.4945   -0.4773    0.8837 C   0  0  0  0  0  0  0  0  0  0  0  0
    7.8756   -0.6351    0.7294 C   0  0  0  0  0  0  0  0  0  0  0  0
    8.4528   -0.6872   -0.5467 C   0  0  0  0  0  0  0  0  0  0  0  0
    9.8378   -0.8430   -0.7193 C   0  0  0  0  0  0  0  0  0  0  0  0
   10.3948   -0.8992   -1.9977 C   0  0  0  0  0  0  0  0  0  0  0  0
    9.5750   -0.8022   -3.1181 C   0  0  0  0  0  0  0  0  0  0  0  0
    8.1967   -0.6470   -2.9622 C   0  0  0  0  0  0  0  0  0  0  0  0
    7.6209   -0.5860   -1.6827 C   0  0  0  0  0  0  0  0  0  0  0  0
    6.2349   -0.4261   -1.5081 C   0  0  0  0  0  0  0  0  0  0  0  0
    3.4528   -1.0651   -0.7742 N   0  0  0  0  0  0  0  0  0  0  0  0
    2.0707   -1.0191   -0.7280 N   0  0  0  0  0  0  0  0  0  0  0  0
    1.4089   -0.0900   -0.0103 C   0  0  0  0  0  0  0  0  0  0  0  0
    0.0234   -0.0891   -0.0028 N   0  0  0  0  0  0  0  0  0  0  0  0
   -0.7552    0.7603    0.8759 C   0  0  0  0  0  0  0  0  0  0  0  0
   -0.6432   -1.1543   -0.7359 C   0  0  0  0  0  0  0  0  0  0  0  0
    2.1644    0.8449    0.6876 C   0  0  0  0  0  0  0  0  0  0  0  0
    4.1985    1.9912    2.7892 C   0  0  0  0  0  0  0  0  0  0  0  0
    4.8456    3.1072    4.5180 H   0  0  0  0  0  0  0  0  0  0  0  0
    6.4340    4.4924    0.9822 H   0  0  0  0  0  0  0  0  0  0  0  0
    5.2438    2.7717   -0.3493 H   0  0  0  0  0  0  0  0  0  0  0  0
    6.0841   -0.4567    1.8911 H   0  0  0  0  0  0  0  0  0  0  0  0
    8.4968   -0.7203    1.6184 H   0  0  0  0  0  0  0  0  0  0  0  0
   10.4940   -0.9235    0.1444 H   0  0  0  0  0  0  0  0  0  0  0  0
   11.4681   -1.0214   -2.1174 H   0  0  0  0  0  0  0  0  0  0  0  0
   10.0066   -0.8489   -4.1145 H   0  0  0  0  0  0  0  0  0  0  0  0
    7.5717   -0.5756   -3.8498 H   0  0  0  0  0  0  0  0  0  0  0  0
    5.5911   -0.3540   -2.3849 H   0  0  0  0  0  0  0  0  0  0  0  0
   -1.8312    0.6057    0.7400 H   0  0  0  0  0  0  0  0  0  0  0  0
   -0.5617    1.8189    0.6717 H   0  0  0  0  0  0  0  0  0  0  0  0
   -0.5266    0.5489    1.9262 H   0  0  0  0  0  0  0  0  0  0  0  0
   -1.7290   -1.0100   -0.7538 H   0  0  0  0  0  0  0  0  0  0  0  0
   -0.4487   -2.1271   -0.2707 H   0  0  0  0  0  0  0  0  0  0  0  0
   -0.3149   -1.1844   -1.7813 H   0  0  0  0  0  0  0  0  0  0  0  0
    1.6680    1.6262    1.2541 H   0  0  0  0  0  0  0  0  0  0  0  0
    3.5851    1.3054    3.3650 H   0  0  0  0  0  0  0  0  0  0  0  0
 26  1  1  0
  1  2  2  0
  2  3  1  0
  3 27  1  0
  3  4  2  0
  4 28  1  0
  4  5  1  0
  5  6  1  0
  6  7  1  0
  7  8  1  0
  8  9  2  0
  9 29  1  0
  9 10  1  0
 10 30  1  0
 10 11  2  0
 11 12  1  0
 12 31  1  0
 12 13  2  0
 13 32  1  0
 13 14  1  0
 14 33  1  0
 14 15  2  0
 15 34  1  0
 11 16  1  0
 15 16  1  0
  8 17  1  0
 16 17  2  0
 17 35  1  0
  7 18  2  0
 18 19  1  0
 19 20  2  0
 20 21  1  0
 21 22  1  0
 22 36  1  0
 22 37  1  0
 22 38  1  0
 21 23  1  0
 23 39  1  0
 23 40  1  0
 23 41  1  0
  6 24  2  0
 20 24  1  0
 24 42  1  0
  1 25  1  0
  5 25  2  0
 25 43  1  0
M  END
>  <conformer_energy>  (1) 
77.30

>  <ligand_smiles>  (1) 
CN(C)c1cc(-c2ccncc2)c(-c2ccc3ccccc3c2)nn1

>  <ligand_conf_name>  (1) 
MOL_0_isomer_0_conf_0

>  <ligand_molecule_name>  (1) 
MOL_0_isomer_0

$$$$
