MOL_0_isomer_0_conf_0
     RDKit          3D

 49 51  0  0  0  0  0  0  0  0999 V2000
   -2.5168   -2.2794   -0.3333 O   0  0  0  0  0  0  0  0  0  0  0  0
   -2.0723   -0.9359   -0.0870 C   0  0  2  0  0  0  0  0  0  0  0  0
   -2.5220   -0.0073   -1.2205 C   0  0  2  0  0  0  0  0  0  0  0  0
   -2.1056   -0.6078   -2.4599 O   0  0  0  0  0  0  0  0  0  0  0  0
   -1.8974    1.3840   -1.0262 C   0  0  2  0  0  0  0  0  0  0  0  0
   -2.2489    2.3398   -2.1596 C   0  0  0  0  0  0  0  0  0  0  0  0
   -0.4654    1.2534   -0.9964 O   0  0  0  0  0  0  0  0  0  0  0  0
   -0.0239    0.5042    0.1386 C   0  0  2  0  0  0  0  0  0  0  0  0
    1.4108    0.5704    0.0791 N   0  0  0  0  0  0  0  0  0  0  0  0
    2.1870    0.5537    1.2156 C   0  0  0  0  0  0  0  0  0  0  0  0
    1.6993    0.5846    2.3438 O   0  0  0  0  0  0  0  0  0  0  0  0
    3.6193    0.5208    0.9823 C   0  0  0  0  0  0  0  0  0  0  0  0
    4.4247    0.4237    2.0842 O   0  0  0  0  0  0  0  0  0  0  0  0
    5.7234    0.3964    1.6712 C   0  0  0  0  0  0  0  0  0  0  0  0
    6.7089    0.2954    2.7407 C   0  0  0  0  0  0  0  0  0  0  0  0
    8.0549    0.6037    2.5261 C   0  0  0  0  0  0  0  0  0  0  0  0
    8.9754    0.5314    3.5756 C   0  0  0  0  0  0  0  0  0  0  0  0
    8.5621    0.1559    4.8555 C   0  0  0  0  0  0  0  0  0  0  0  0
    7.2218   -0.1651    5.0960 C   0  0  0  0  0  0  0  0  0  0  0  0
    6.7389   -0.5392    6.4647 C   0  0  0  0  0  0  0  0  0  0  0  0
    5.8439    0.5020    7.0186 N   0  0  0  0  0  4  0  0  0  0  0  0
    6.3119   -0.1032    4.0283 C   0  0  0  0  0  0  0  0  0  0  0  0
    5.7660    0.4919    0.2969 C   0  0  0  0  0  0  0  0  0  0  0  0
    4.4175    0.5641   -0.1470 C   0  0  0  0  0  0  0  0  0  0  0  0
   -0.5438   -0.9495    0.0526 C   0  0  1  0  0  0  0  0  0  0  0  0
   -0.1878   -1.7315    1.1984 O   0  0  0  0  0  0  0  0  0  0  0  0
   -2.5489   -2.3749   -1.3089 H   0  0  0  0  0  0  0  0  0  0  0  0
   -2.5252   -0.6247    0.8618 H   0  0  0  0  0  0  0  0  0  0  0  0
   -3.6154    0.0474   -1.2507 H   0  0  0  0  0  0  0  0  0  0  0  0
   -1.2830   -0.1653   -2.7448 H   0  0  0  0  0  0  0  0  0  0  0  0
   -2.2365    1.8256   -0.0804 H   0  0  0  0  0  0  0  0  0  0  0  0
   -3.3322    2.4589   -2.2556 H   0  0  0  0  0  0  0  0  0  0  0  0
   -1.8067    3.3244   -1.9716 H   0  0  0  0  0  0  0  0  0  0  0  0
   -1.8441    1.9989   -3.1183 H   0  0  0  0  0  0  0  0  0  0  0  0
   -0.3638    0.9874    1.0630 H   0  0  0  0  0  0  0  0  0  0  0  0
    1.8255    0.5981   -0.8369 H   0  0  0  0  0  0  0  0  0  0  0  0
    8.4044    0.9130    1.5429 H   0  0  0  0  0  0  0  0  0  0  0  0
   10.0206    0.7745    3.3895 H   0  0  0  0  0  0  0  0  0  0  0  0
    9.3069    0.1136    5.6490 H   0  0  0  0  0  0  0  0  0  0  0  0
    7.5661   -0.6496    7.1731 H   0  0  0  0  0  0  0  0  0  0  0  0
    6.1729   -1.4761    6.4410 H   0  0  0  0  0  0  0  0  0  0  0  0
    5.0100    0.6185    6.4279 H   0  0  0  0  0  0  0  0  0  0  0  0
    6.3218    1.4110    7.0434 H   0  0  0  0  0  0  0  0  0  0  0  0
    5.5302    0.2711    7.9673 H   0  0  0  0  0  0  0  0  0  0  0  0
    5.2677   -0.3744    4.1885 H   0  0  0  0  0  0  0  0  0  0  0  0
    6.6543    0.4997   -0.3198 H   0  0  0  0  0  0  0  0  0  0  0  0
    4.0828    0.6426   -1.1716 H   0  0  0  0  0  0  0  0  0  0  0  0
   -0.1015   -1.4540   -0.8160 H   0  0  0  0  0  0  0  0  0  0  0  0
   -0.7490   -2.5320    1.1522 H   0  0  0  0  0  0  0  0  0  0  0  0
 27  1  1  0
  1  2  1  0
  2 28  1  1
  2  3  1  0
  3 29  1  6
  3  4  1  0
  4 30  1  0
  3  5  1  0
  5 31  1  1
  5  6  1  0
  6 32  1  0
  6 33  1  0
  6 34  1  0
  5  7  1  0
  7  8  1  0
  8 35  1  1
  8  9  1  0
  9 36  1  0
  9 10  1  0
 10 11  2  0
 10 12  1  0
 12 13  1  0
 13 14  1  0
 14 15  1  0
 15 16  2  0
 16 37  1  0
 16 17  1  0
 17 38  1  0
 17 18  2  0
 18 39  1  0
 18 19  1  0
 19 20  1  0
 20 40  1  0
 20 41  1  0
 20 21  1  0
 21 42  1  0
 21 43  1  0
 21 44  1  0
 15 22  1  0
 19 22  2  0
 22 45  1  0
 14 23  2  0
 23 46  1  0
 12 24  2  0
 23 24  1  0
 24 47  1  0
  2 25  1  0
  8 25  1  0
 25 48  1  6
 25 26  1  0
 26 49  1  0
M  CHG  1  21   1
M  END
>  <conformer_energy>  (1) 
58.62

>  <ligand_smiles>  (1) 
C[C@@H]1O[C@H](NC(=O)c2ccc(-c3cccc(C[NH3+])c3)o2)[C@@H](O)[C@H](O)[C@@H]1O

>  <ligand_conf_name>  (1) 
MOL_0_isomer_0_conf_0

>  <ligand_molecule_name>  (1) 
MOL_0_isomer_0

$$$$
