MOL_0_isomer_0_conf_0
     RDKit          3D

 66 72  0  0  0  0  0  0  0  0999 V2000
    3.2727   -3.1100    1.8314 O   0  0  0  0  0  0  0  0  0  0  0  0
    2.9887   -2.2347    0.7261 C   0  0  2  0  0  0  0  0  0  0  0  0
    1.5123   -1.8648    0.6382 C   0  0  2  0  0  0  0  0  0  0  0  0
    0.7960   -1.8163    1.8612 O   0  0  0  0  0  0  0  0  0  0  0  0
    1.2800   -0.8019    3.0260 P   0  0  1  0  0  5  0  0  0  0  0  0
    0.2735   -0.8491    4.1418 O   0  0  0  0  0  0  0  0  0  0  0  0
    2.7404   -1.0887    3.2875 O   0  0  0  0  0  1  0  0  0  0  0  0
    1.1540    0.6034    2.2221 O   0  0  0  0  0  0  0  0  0  0  0  0
   -0.0173    1.3741    2.4122 C   0  0  0  0  0  0  0  0  0  0  0  0
   -1.2277    0.8695    1.6154 C   0  0  1  0  0  0  0  0  0  0  0  0
   -2.3579    1.7190    1.9719 O   0  0  0  0  0  0  0  0  0  0  0  0
   -2.7724    2.4320    0.7881 C   0  0  1  0  0  0  0  0  0  0  0  0
   -3.2359    3.7452    1.1978 N   0  0  0  0  0  0  0  0  0  0  0  0
   -2.5200    4.9173    1.2479 C   0  0  0  0  0  0  0  0  0  0  0  0
   -3.2370    5.9287    1.6970 N   0  0  0  0  0  0  0  0  0  0  0  0
   -4.4795    5.3819    1.9492 C   0  0  0  0  0  0  0  0  0  0  0  0
   -5.6691    5.9390    2.4521 C   0  0  0  0  0  0  0  0  0  0  0  0
   -5.7786    7.2660    2.8115 N   0  0  0  0  0  0  0  0  0  0  0  0
   -6.7522    5.1407    2.6036 N   0  0  0  0  0  0  0  0  0  0  0  0
   -6.6316    3.8402    2.2509 C   0  0  0  0  0  0  0  0  0  0  0  0
   -5.5556    3.2001    1.7581 N   0  0  0  0  0  0  0  0  0  0  0  0
   -4.5050    4.0317    1.6374 C   0  0  0  0  0  0  0  0  0  0  0  0
   -1.5758    2.3968   -0.1640 C   0  0  2  0  0  0  0  0  0  0  0  0
   -1.9291    2.7467   -1.4943 O   0  0  0  0  0  0  0  0  0  0  0  0
   -1.0548    0.9849    0.0914 C   0  0  2  0  0  0  0  0  0  0  0  0
   -1.8965    0.0208   -0.5415 O   0  0  0  0  0  0  0  0  0  0  0  0
   -1.4696   -0.4753   -2.0288 P   0  0  2  0  0  5  0  0  0  0  0  0
   -1.0254    0.7618   -2.7780 O   0  0  0  0  0  0  0  0  0  0  0  0
   -2.5452   -1.3849   -2.5585 O   0  0  0  0  0  1  0  0  0  0  0  0
   -0.1603   -1.3462   -1.6619 O   0  0  0  0  0  0  0  0  0  0  0  0
   -0.3423   -2.5712   -0.9726 C   0  0  0  0  0  0  0  0  0  0  0  0
    0.9501   -2.9689   -0.2526 C   0  0  1  0  0  0  0  0  0  0  0  0
    1.9876   -3.3225   -1.1959 O   0  0  0  0  0  0  0  0  0  0  0  0
    3.2467   -2.9781   -0.5851 C   0  0  1  0  0  0  0  0  0  0  0  0
    4.0671   -2.2549   -1.5392 N   0  0  0  0  0  0  0  0  0  0  0  0
    5.3217   -2.6349   -1.9508 C   0  0  0  0  0  0  0  0  0  0  0  0
    5.8337   -1.8008   -2.8337 N   0  0  0  0  0  0  0  0  0  0  0  0
    4.8561   -0.8335   -2.9978 C   0  0  0  0  0  0  0  0  0  0  0  0
    4.7788    0.3155   -3.8036 C   0  0  0  0  0  0  0  0  0  0  0  0
    5.7933    0.7086   -4.6513 N   0  0  0  0  0  0  0  0  0  0  0  0
    3.6551    1.0680   -3.7615 N   0  0  0  0  0  0  0  0  0  0  0  0
    2.6590    0.6855   -2.9256 C   0  0  0  0  0  0  0  0  0  0  0  0
    2.6597   -0.3492   -2.0694 N   0  0  0  0  0  0  0  0  0  0  0  0
    3.7669   -1.0891   -2.1831 C   0  0  0  0  0  0  0  0  0  0  0  0
    3.1459   -2.5087    2.6199 H   0  0  0  0  0  0  0  0  0  0  0  0
    3.6342   -1.3566    0.8407 H   0  0  0  0  0  0  0  0  0  0  0  0
    1.4307   -0.8950    0.1421 H   0  0  0  0  0  0  0  0  0  0  0  0
    0.2216    2.4034    2.1200 H   0  0  0  0  0  0  0  0  0  0  0  0
   -0.2612    1.4452    3.4791 H   0  0  0  0  0  0  0  0  0  0  0  0
   -1.4782   -0.1561    1.9065 H   0  0  0  0  0  0  0  0  0  0  0  0
   -3.6314    1.9112    0.3451 H   0  0  0  0  0  0  0  0  0  0  0  0
   -1.4812    4.9897    0.9476 H   0  0  0  0  0  0  0  0  0  0  0  0
   -4.9537    7.8471    2.7383 H   0  0  0  0  0  0  0  0  0  0  0  0
   -6.6402    7.5709    3.2354 H   0  0  0  0  0  0  0  0  0  0  0  0
   -7.5219    3.2296    2.3829 H   0  0  0  0  0  0  0  0  0  0  0  0
   -0.7924    3.0958    0.1465 H   0  0  0  0  0  0  0  0  0  0  0  0
   -1.5544    2.0463   -2.1010 H   0  0  0  0  0  0  0  0  0  0  0  0
   -0.0206    0.8516   -0.2370 H   0  0  0  0  0  0  0  0  0  0  0  0
   -0.6132   -3.3344   -1.7092 H   0  0  0  0  0  0  0  0  0  0  0  0
   -1.1549   -2.4759   -0.2447 H   0  0  0  0  0  0  0  0  0  0  0  0
    0.7422   -3.8692    0.3409 H   0  0  0  0  0  0  0  0  0  0  0  0
    3.7612   -3.9277   -0.3900 H   0  0  0  0  0  0  0  0  0  0  0  0
    5.8058   -3.5272   -1.5748 H   0  0  0  0  0  0  0  0  0  0  0  0
    6.6205    0.1373   -4.7145 H   0  0  0  0  0  0  0  0  0  0  0  0
    5.6310    1.5281   -5.2115 H   0  0  0  0  0  0  0  0  0  0  0  0
    1.7493    1.2827   -2.9467 H   0  0  0  0  0  0  0  0  0  0  0  0
 45  1  1  0
  1  2  1  0
  2 46  1  1
  2  3  1  0
  3 47  1  6
  3  4  1  0
  4  5  1  0
  5  6  2  0
  5  7  1  1
  5  8  1  0
  8  9  1  0
  9 48  1  0
  9 49  1  0
  9 10  1  0
 10 50  1  6
 10 11  1  0
 11 12  1  0
 12 51  1  6
 12 13  1  0
 13 14  1  0
 14 52  1  0
 14 15  2  0
 15 16  1  0
 16 17  1  0
 17 18  1  0
 18 53  1  0
 18 54  1  0
 17 19  2  0
 19 20  1  0
 20 55  1  0
 20 21  2  0
 16 22  2  0
 13 22  1  0
 21 22  1  0
 12 23  1  0
 23 56  1  1
 23 24  1  0
 24 57  1  0
 10 25  1  0
 23 25  1  0
 25 58  1  1
 25 26  1  0
 26 27  1  0
 27 28  2  0
 27 29  1  6
 27 30  1  0
 30 31  1  0
 31 59  1  0
 31 60  1  0
  3 32  1  0
 31 32  1  0
 32 61  1  1
 32 33  1  0
  2 34  1  0
 33 34  1  0
 34 62  1  1
 34 35  1  0
 35 36  1  0
 36 63  1  0
 36 37  2  0
 37 38  1  0
 38 39  1  0
 39 40  1  0
 40 64  1  0
 40 65  1  0
 39 41  2  0
 41 42  1  0
 42 66  1  0
 42 43  2  0
 38 44  2  0
 35 44  1  0
 43 44  1  0
M  CHG  2   7  -1  29  -1
M  END
>  <conformer_energy>  (1) 
-69.81

>  <ligand_smiles>  (1) 
Nc1ncnc2c1ncn2[C@@H]1O[C@@H]2CO[P@@](=O)([O-])O[C@H]3[C@@H](O)[C@H](n4cnc5c(N)ncnc54)O[C@@H]3CO[P@](=O)([O-])O[C@H]2[C@H]1O

>  <ligand_conf_name>  (1) 
MOL_0_isomer_0_conf_0

>  <ligand_molecule_name>  (1) 
MOL_0_isomer_0

$$$$
