MOL_0_isomer_0_conf_0
     RDKit          3D

 31 33  0  0  0  0  0  0  0  0999 V2000
    5.9834    0.0030   -0.6990 C   0  0  0  0  0  0  0  0  0  0  0  0
    4.7893   -0.0806   -1.4163 C   0  0  0  0  0  0  0  0  0  0  0  0
    3.6193   -0.0845   -0.6841 C   0  0  0  0  0  0  0  0  0  0  0  0
    3.6113    0.0002    0.6981 C   0  0  0  0  0  0  0  0  0  0  0  0
    4.7774    0.1022    1.4399 C   0  0  0  0  0  0  0  0  0  0  0  0
    4.7867    0.1302    2.8202 N   0  0  0  0  0  0  0  0  0  0  0  0
    5.9746    0.0848    0.7111 C   0  0  0  0  0  0  0  0  0  0  0  0
    2.2101   -0.0310    1.1239 C   0  0  0  0  0  0  0  0  0  0  0  0
    1.8326    0.0376    2.2798 O   0  0  0  0  0  0  0  0  0  0  0  0
    1.4534   -0.1569   -0.0104 N   0  0  0  0  0  0  0  0  0  0  0  0
   -0.0007   -0.1285   -0.0025 C   0  0  1  0  0  0  0  0  0  0  0  0
   -0.4786    1.2524   -0.4627 C   0  0  0  0  0  0  0  0  0  0  0  0
    0.1717    2.2852   -0.3106 O   0  0  0  0  0  0  0  0  0  0  0  0
   -1.7479    1.3021   -0.9942 N   0  0  0  0  0  0  0  0  0  0  0  0
   -2.6267    0.2651   -1.1852 C   0  0  0  0  0  0  0  0  0  0  0  0
   -3.7530    0.4634   -1.6311 O   0  0  0  0  0  0  0  0  0  0  0  0
   -2.1620   -1.1050   -0.7487 C   0  0  0  0  0  0  0  0  0  0  0  0
   -0.6490   -1.2300   -0.8374 C   0  0  0  0  0  0  0  0  0  0  0  0
    2.2323   -0.1690   -1.1334 C   0  0  0  0  0  0  0  0  0  0  0  0
    1.8934   -0.2233   -2.3000 O   0  0  0  0  0  0  0  0  0  0  0  0
    6.9344    0.0014   -1.2284 H   0  0  0  0  0  0  0  0  0  0  0  0
    4.7770   -0.1437   -2.4995 H   0  0  0  0  0  0  0  0  0  0  0  0
    5.6311    0.3243    3.3399 H   0  0  0  0  0  0  0  0  0  0  0  0
    3.8965    0.2017    3.3117 H   0  0  0  0  0  0  0  0  0  0  0  0
    6.9273    0.1355    1.2352 H   0  0  0  0  0  0  0  0  0  0  0  0
   -0.3377   -0.2296    1.0378 H   0  0  0  0  0  0  0  0  0  0  0  0
   -2.0727    2.2167   -1.2776 H   0  0  0  0  0  0  0  0  0  0  0  0
   -2.6323   -1.8544   -1.3942 H   0  0  0  0  0  0  0  0  0  0  0  0
   -2.5077   -1.2710    0.2777 H   0  0  0  0  0  0  0  0  0  0  0  0
   -0.3526   -1.1581   -1.8900 H   0  0  0  0  0  0  0  0  0  0  0  0
   -0.3314   -2.2159   -0.4791 H   0  0  0  0  0  0  0  0  0  0  0  0
 21  1  1  0
  1  2  2  0
  2 22  1  0
  2  3  1  0
  3  4  2  0
  4  5  1  0
  5  6  1  0
  6 23  1  0
  6 24  1  0
  1  7  1  0
  5  7  2  0
  7 25  1  0
  4  8  1  0
  8  9  2  0
  8 10  1  0
 10 11  1  0
 11 26  1  1
 11 12  1  0
 12 13  2  0
 12 14  1  0
 14 27  1  0
 14 15  1  0
 15 16  2  0
 15 17  1  0
 17 28  1  0
 17 29  1  0
 11 18  1  0
 17 18  1  0
 18 30  1  0
 18 31  1  0
  3 19  1  0
 10 19  1  0
 19 20  2  0
M  END
>  <conformer_energy>  (1) 
-34.55

>  <ligand_smiles>  (1) 
Nc1cccc2c1C(=O)N([C@@H]1CCC(=O)NC1=O)C2=O

>  <ligand_conf_name>  (1) 
MOL_0_isomer_0_conf_0

>  <ligand_molecule_name>  (1) 
MOL_0_isomer_0

$$$$
