MOL_0_isomer_0_conf_0
     RDKit          3D

 38 41  0  0  0  0  0  0  0  0999 V2000
   -1.2355    3.5424    2.5877 C   0  0  0  0  0  0  0  0  0  0  0  0
   -1.7947    3.2657    3.8328 C   0  0  0  0  0  0  0  0  0  0  0  0
   -1.9299    1.9490    4.2650 C   0  0  0  0  0  0  0  0  0  0  0  0
   -2.4672    1.6853    5.4630 F   0  0  0  0  0  0  0  0  0  0  0  0
   -1.4964    0.9188    3.4309 C   0  0  0  0  0  0  0  0  0  0  0  0
   -0.9325    1.1624    2.1789 C   0  0  0  0  0  0  0  0  0  0  0  0
   -0.8010    2.5023    1.7530 C   0  0  0  0  0  0  0  0  0  0  0  0
   -0.6030   -0.1095    1.6079 C   0  0  0  0  0  0  0  0  0  0  0  0
    0.0355   -0.3597    0.2744 C   0  0  0  0  0  0  0  0  0  0  0  0
    1.5651   -0.2508    0.3215 C   0  0  1  0  0  0  0  0  0  0  0  0
    2.2312   -1.6114    0.6660 C   0  0  0  0  0  0  0  0  0  0  0  0
    1.6720   -2.5355    1.2475 O   0  0  0  0  0  0  0  0  0  0  0  0
    3.5731   -1.6483    0.3353 N   0  0  0  0  0  0  0  0  0  0  0  0
    4.4280   -2.8058    0.4789 C   0  0  0  0  0  0  0  0  0  0  0  0
    5.8334   -2.2543    0.2731 C   0  0  0  0  0  0  0  0  0  0  0  0
    5.6159   -1.0485   -0.6418 C   0  0  0  0  0  0  0  0  0  0  0  0
    4.2996   -0.4732   -0.1353 C   0  0  1  0  0  0  0  0  0  0  0  0
    3.4715    0.2545   -1.1980 C   0  0  0  0  0  0  0  0  0  0  0  0
    3.9422    0.9213   -2.1121 O   0  0  0  0  0  0  0  0  0  0  0  0
    2.1120    0.2276   -0.9619 N   0  0  0  0  0  0  0  0  0  0  0  0
   -0.9806   -1.0699    2.5266 C   0  0  0  0  0  0  0  0  0  0  0  0
   -1.5155   -0.4414    3.6176 N   0  0  0  0  0  0  0  0  0  0  0  0
   -1.1352    4.5738    2.2577 H   0  0  0  0  0  0  0  0  0  0  0  0
   -2.1309    4.0723    4.4772 H   0  0  0  0  0  0  0  0  0  0  0  0
   -0.3687    2.7339    0.7837 H   0  0  0  0  0  0  0  0  0  0  0  0
   -0.3718    0.3763   -0.4315 H   0  0  0  0  0  0  0  0  0  0  0  0
   -0.2748   -1.3400   -0.1093 H   0  0  0  0  0  0  0  0  0  0  0  0
    1.8893    0.4721    1.0813 H   0  0  0  0  0  0  0  0  0  0  0  0
    4.1564   -3.5215   -0.3043 H   0  0  0  0  0  0  0  0  0  0  0  0
    4.2882   -3.2780    1.4554 H   0  0  0  0  0  0  0  0  0  0  0  0
    6.5183   -2.9938   -0.1507 H   0  0  0  0  0  0  0  0  0  0  0  0
    6.2453   -1.9169    1.2320 H   0  0  0  0  0  0  0  0  0  0  0  0
    5.5287   -1.3811   -1.6836 H   0  0  0  0  0  0  0  0  0  0  0  0
    6.4362   -0.3268   -0.5864 H   0  0  0  0  0  0  0  0  0  0  0  0
    4.4514    0.1961    0.7199 H   0  0  0  0  0  0  0  0  0  0  0  0
    1.5476    0.7723   -1.6021 H   0  0  0  0  0  0  0  0  0  0  0  0
   -0.9005   -2.1500    2.4964 H   0  0  0  0  0  0  0  0  0  0  0  0
   -1.8708   -0.8993    4.4465 H   0  0  0  0  0  0  0  0  0  0  0  0
 23  1  1  0
  1  2  2  0
  2 24  1  0
  2  3  1  0
  3  4  1  0
  3  5  2  0
  5  6  1  0
  1  7  1  0
  6  7  2  0
  7 25  1  0
  6  8  1  0
  8  9  1  0
  9 26  1  0
  9 27  1  0
  9 10  1  0
 10 28  1  1
 10 11  1  0
 11 12  2  0
 11 13  1  0
 13 14  1  0
 14 29  1  0
 14 30  1  0
 14 15  1  0
 15 31  1  0
 15 32  1  0
 15 16  1  0
 16 33  1  0
 16 34  1  0
 13 17  1  0
 16 17  1  0
 17 35  1  1
 17 18  1  0
 18 19  2  0
 10 20  1  0
 18 20  1  0
 20 36  1  0
  8 21  2  0
 21 37  1  0
  5 22  1  0
 21 22  1  0
 22 38  1  0
M  END
>  <conformer_energy>  (1) 
85.08

>  <ligand_smiles>  (1) 
O=C1N[C@@H](Cc2c[nH]c3c(F)cccc23)C(=O)N2CCC[C@@H]12

>  <ligand_conf_name>  (1) 
MOL_0_isomer_0_conf_0

>  <ligand_molecule_name>  (1) 
MOL_0_isomer_0

$$$$
