MOL_0_isomer_0_conf_0
     RDKit          3D

 59 60  0  0  0  0  0  0  0  0999 V2000
    3.4558    1.0638    0.3846 C   0  0  0  0  0  0  0  0  0  0  0  0
    2.0724    1.0334    0.5514 C   0  0  0  0  0  0  0  0  0  0  0  0
    1.3390   -0.1059    0.1949 C   0  0  0  0  0  0  0  0  0  0  0  0
   -0.1688   -0.1169    0.3487 C   0  0  0  0  0  0  0  0  0  0  0  0
   -0.6340   -0.1756    1.8113 C   0  0  1  0  0  0  0  0  0  0  0  0
   -2.1140    0.2268    1.7103 C   0  0  0  0  0  0  0  0  0  0  0  0
   -2.9121   -0.6751    1.3331 O   0  0  0  0  0  0  0  0  0  0  0  0
   -2.3503    1.4324    2.0057 O   0  0  0  0  0  1  0  0  0  0  0  0
   -0.4236   -1.5582    2.4382 C   0  0  0  0  0  0  0  0  0  0  0  0
   -0.8520   -1.5998    3.8991 C   0  0  0  0  0  0  0  0  0  0  0  0
    2.0163   -1.2253   -0.3112 C   0  0  0  0  0  0  0  0  0  0  0  0
    3.4116   -1.2142   -0.4745 C   0  0  0  0  0  0  0  0  0  0  0  0
    4.1087   -2.4143   -1.0532 C   0  0  0  0  0  0  0  0  0  0  0  0
    4.1548   -2.3348   -2.4971 N   0  0  0  0  0  0  0  0  0  0  0  0
    4.9238   -3.1901   -3.2452 C   0  0  0  0  0  0  0  0  0  0  0  0
    5.6048   -4.0843   -2.7500 O   0  0  0  0  0  0  0  0  0  0  0  0
    4.9139   -3.0074   -4.7241 C   0  0  0  0  0  0  0  0  0  0  0  0
    5.6246   -3.9259   -5.5114 C   0  0  0  0  0  0  0  0  0  0  0  0
    5.6550   -3.7994   -6.9056 C   0  0  0  0  0  0  0  0  0  0  0  0
    4.9696   -2.7540   -7.5416 C   0  0  0  0  0  0  0  0  0  0  0  0
    5.0083   -2.5928   -9.0416 C   0  0  0  0  0  0  0  0  0  0  0  0
    5.4286   -3.7115   -9.6952 F   0  0  0  0  0  0  0  0  0  0  0  0
    5.8480   -1.5946   -9.4315 F   0  0  0  0  0  0  0  0  0  0  0  0
    3.7911   -2.2874   -9.5698 F   0  0  0  0  0  0  0  0  0  0  0  0
    4.2657   -1.8331   -6.7524 C   0  0  0  0  0  0  0  0  0  0  0  0
    4.2416   -1.9640   -5.3625 C   0  0  0  0  0  0  0  0  0  0  0  0
    3.5569   -1.0459   -4.6638 F   0  0  0  0  0  0  0  0  0  0  0  0
    4.1122   -0.0444   -0.1507 C   0  0  0  0  0  0  0  0  0  0  0  0
    5.4705    0.0018   -0.3314 O   0  0  0  0  0  0  0  0  0  0  0  0
    5.7854    0.7640   -1.5037 C   0  0  0  0  0  0  0  0  0  0  0  0
    7.1768    0.3465   -1.9718 C   0  0  0  0  0  0  0  0  0  0  0  0
    7.5898    1.0892   -3.2384 C   0  0  0  0  0  0  0  0  0  0  0  0
    8.9792    0.6770   -3.6976 C   0  0  0  0  0  0  0  0  0  0  0  0
    4.0138    1.9496    0.6704 H   0  0  0  0  0  0  0  0  0  0  0  0
    1.5568    1.9005    0.9605 H   0  0  0  0  0  0  0  0  0  0  0  0
   -0.5519    0.7842   -0.1516 H   0  0  0  0  0  0  0  0  0  0  0  0
   -0.5874   -0.9595   -0.2186 H   0  0  0  0  0  0  0  0  0  0  0  0
   -0.1038    0.5739    2.4124 H   0  0  0  0  0  0  0  0  0  0  0  0
    0.6367   -1.8304    2.3886 H   0  0  0  0  0  0  0  0  0  0  0  0
   -0.9732   -2.3273    1.8843 H   0  0  0  0  0  0  0  0  0  0  0  0
   -0.6375   -2.5841    4.3273 H   0  0  0  0  0  0  0  0  0  0  0  0
   -1.9253   -1.4146    4.0067 H   0  0  0  0  0  0  0  0  0  0  0  0
   -0.3118   -0.8511    4.4874 H   0  0  0  0  0  0  0  0  0  0  0  0
    1.4460   -2.1144   -0.5785 H   0  0  0  0  0  0  0  0  0  0  0  0
    5.1273   -2.5157   -0.6619 H   0  0  0  0  0  0  0  0  0  0  0  0
    3.5794   -3.3357   -0.7826 H   0  0  0  0  0  0  0  0  0  0  0  0
    3.5802   -1.6288   -2.9448 H   0  0  0  0  0  0  0  0  0  0  0  0
    6.1607   -4.7493   -5.0377 H   0  0  0  0  0  0  0  0  0  0  0  0
    6.2163   -4.5281   -7.4898 H   0  0  0  0  0  0  0  0  0  0  0  0
    3.7274   -1.0055   -7.2100 H   0  0  0  0  0  0  0  0  0  0  0  0
    5.7769    1.8328   -1.2526 H   0  0  0  0  0  0  0  0  0  0  0  0
    5.0599    0.5807   -2.3089 H   0  0  0  0  0  0  0  0  0  0  0  0
    7.1889   -0.7371   -2.1491 H   0  0  0  0  0  0  0  0  0  0  0  0
    7.9018    0.5291   -1.1681 H   0  0  0  0  0  0  0  0  0  0  0  0
    7.5763    2.1705   -3.0578 H   0  0  0  0  0  0  0  0  0  0  0  0
    6.8703    0.8846   -4.0403 H   0  0  0  0  0  0  0  0  0  0  0  0
    9.0215   -0.3962   -3.9095 H   0  0  0  0  0  0  0  0  0  0  0  0
    9.7283    0.9065   -2.9321 H   0  0  0  0  0  0  0  0  0  0  0  0
    9.2523    1.2145   -4.6112 H   0  0  0  0  0  0  0  0  0  0  0  0
 34  1  1  0
  1  2  2  0
  2 35  1  0
  2  3  1  0
  3  4  1  0
  4 36  1  0
  4 37  1  0
  4  5  1  0
  5 38  1  1
  5  6  1  0
  6  7  2  0
  6  8  1  0
  5  9  1  0
  9 39  1  0
  9 40  1  0
  9 10  1  0
 10 41  1  0
 10 42  1  0
 10 43  1  0
  3 11  2  0
 11 44  1  0
 11 12  1  0
 12 13  1  0
 13 45  1  0
 13 46  1  0
 13 14  1  0
 14 47  1  0
 14 15  1  0
 15 16  2  0
 15 17  1  0
 17 18  2  0
 18 48  1  0
 18 19  1  0
 19 49  1  0
 19 20  2  0
 20 21  1  0
 21 22  1  0
 21 23  1  0
 21 24  1  0
 20 25  1  0
 25 50  1  0
 17 26  1  0
 25 26  2  0
 26 27  1  0
  1 28  1  0
 12 28  2  0
 28 29  1  0
 29 30  1  0
 30 51  1  0
 30 52  1  0
 30 31  1  0
 31 53  1  0
 31 54  1  0
 31 32  1  0
 32 55  1  0
 32 56  1  0
 32 33  1  0
 33 57  1  0
 33 58  1  0
 33 59  1  0
M  CHG  1   8  -1
M  END
>  <conformer_energy>  (1) 
42.03

>  <ligand_smiles>  (1) 
CCCCOc1ccc(C[C@H](CC)C(=O)[O-])cc1CNC(=O)c1ccc(C(F)(F)F)cc1F

>  <ligand_conf_name>  (1) 
MOL_0_isomer_0_conf_0

>  <ligand_molecule_name>  (1) 
MOL_0_isomer_0

$$$$
