MOL_0_isomer_0_conf_0
     RDKit          3D

 67 72  0  0  0  0  0  0  0  0999 V2000
   -1.6487   -2.0984    1.7452 O   0  0  0  0  0  0  0  0  0  0  0  0
   -1.9604   -0.7381    1.4332 C   0  0  1  0  0  0  0  0  0  0  0  0
   -0.6680    0.0803    1.2825 C   0  0  0  0  0  0  0  0  0  0  0  0
    0.0316   -0.3219    0.0593 N   0  0  0  0  0  0  0  0  0  0  0  0
    1.3974   -0.0945    0.0016 C   0  0  0  0  0  0  0  0  0  0  0  0
    2.0539    0.2202    1.1279 N   0  0  0  0  0  0  0  0  0  0  0  0
    3.3839    0.4182    1.0435 C   0  0  0  0  0  0  0  0  0  0  0  0
    4.0933    0.3151   -0.1259 C   0  0  0  0  0  0  0  0  0  0  0  0
    5.7885    0.5996   -0.1522 Cl  0  0  0  0  0  0  0  0  0  0  0  0
    3.3598   -0.0155   -1.2548 C   0  0  0  0  0  0  0  0  0  0  0  0
    4.0247   -0.1629   -2.4938 N   0  0  0  0  0  0  0  0  0  0  0  0
    3.6228   -0.7569   -3.6999 C   0  0  0  0  0  0  0  0  0  0  0  0
    2.5526   -1.6388   -3.8005 C   0  0  0  0  0  0  0  0  0  0  0  0
    2.2117   -2.2191   -5.0258 C   0  0  0  0  0  0  0  0  0  0  0  0
    2.9212   -1.9143   -6.1978 C   0  0  0  0  0  0  0  0  0  0  0  0
    3.9674   -0.9791   -6.1394 C   0  0  0  0  0  0  0  0  0  0  0  0
    4.3197   -0.4451   -4.8782 C   0  0  0  0  0  0  0  0  0  0  0  0
    4.6872   -0.5870   -7.3837 C   0  0  0  0  0  0  0  0  0  0  0  0
    4.4471   -1.2942   -8.5117 C   0  0  0  0  0  0  0  0  0  0  0  0
    3.3830   -2.3512   -8.5689 C   0  0  0  0  0  0  0  0  0  0  0  0
    3.2132   -2.9755   -9.6179 O   0  0  0  0  0  0  0  0  0  0  0  0
    2.6264   -2.5670   -7.4275 N   0  0  0  0  0  0  0  0  0  0  0  0
    1.5463   -3.5405   -7.4973 C   0  0  0  0  0  0  0  0  0  0  0  0
    5.1116   -1.0567   -9.7142 O   0  0  0  0  0  0  0  0  0  0  0  0
    6.5358   -1.1282   -9.5672 C   0  0  0  0  0  0  0  0  0  0  0  0
    7.1632    0.2148   -9.2163 C   0  0  0  0  0  0  0  0  0  0  0  0
    7.5716    0.8272  -10.3668 F   0  0  0  0  0  0  0  0  0  0  0  0
    8.2983   -0.0090   -8.4931 F   0  0  0  0  0  0  0  0  0  0  0  0
    6.2074    1.1599   -8.4573 C   0  0  2  0  0  0  0  0  0  0  0  0
    6.9453    2.3686   -7.9176 C   0  0  0  0  0  0  0  0  0  0  0  0
    7.0852    3.6217   -8.7468 C   0  0  0  0  0  0  0  0  0  0  0  0
    6.1896    3.6216   -7.5393 C   0  0  0  0  0  0  0  0  0  0  0  0
    5.5348    0.5205   -7.3183 N   0  0  0  0  0  0  0  0  0  0  0  0
    2.0272   -0.2190   -1.1780 N   0  0  0  0  0  0  0  0  0  0  0  0
   -0.7115   -0.2348   -1.1979 C   0  0  0  0  0  0  0  0  0  0  0  0
   -2.0410   -1.0027   -1.1212 C   0  0  1  0  0  0  0  0  0  0  0  0
   -1.8246   -2.5050   -1.3302 C   0  0  0  0  0  0  0  0  0  0  0  0
   -2.8157   -0.6796    0.1677 C   0  0  0  0  0  0  0  0  0  0  0  0
   -0.7846   -2.2803    1.3277 H   0  0  0  0  0  0  0  0  0  0  0  0
   -2.5388   -0.3504    2.2789 H   0  0  0  0  0  0  0  0  0  0  0  0
   -0.8979    1.1518    1.2409 H   0  0  0  0  0  0  0  0  0  0  0  0
   -0.0614   -0.1078    2.1765 H   0  0  0  0  0  0  0  0  0  0  0  0
    3.8689    0.6705    1.9813 H   0  0  0  0  0  0  0  0  0  0  0  0
    4.9079    0.3332   -2.5249 H   0  0  0  0  0  0  0  0  0  0  0  0
    1.9836   -1.9260   -2.9204 H   0  0  0  0  0  0  0  0  0  0  0  0
    1.3893   -2.9278   -5.0220 H   0  0  0  0  0  0  0  0  0  0  0  0
    5.1717    0.2227   -4.7930 H   0  0  0  0  0  0  0  0  0  0  0  0
    1.4059   -3.9288   -8.5101 H   0  0  0  0  0  0  0  0  0  0  0  0
    1.7780   -4.3872   -6.8432 H   0  0  0  0  0  0  0  0  0  0  0  0
    0.6072   -3.0674   -7.1931 H   0  0  0  0  0  0  0  0  0  0  0  0
    6.9343   -1.4667  -10.5302 H   0  0  0  0  0  0  0  0  0  0  0  0
    6.8138   -1.8995   -8.8360 H   0  0  0  0  0  0  0  0  0  0  0  0
    5.4368    1.5115   -9.1566 H   0  0  0  0  0  0  0  0  0  0  0  0
    7.7888    2.0876   -7.2943 H   0  0  0  0  0  0  0  0  0  0  0  0
    6.6209    3.6557   -9.7265 H   0  0  0  0  0  0  0  0  0  0  0  0
    8.0220    4.1651   -8.6872 H   0  0  0  0  0  0  0  0  0  0  0  0
    6.5207    4.1710   -6.6649 H   0  0  0  0  0  0  0  0  0  0  0  0
    5.1186    3.6582   -7.7064 H   0  0  0  0  0  0  0  0  0  0  0  0
    5.3845    1.1445   -6.5335 H   0  0  0  0  0  0  0  0  0  0  0  0
   -0.9166    0.8223   -1.4121 H   0  0  0  0  0  0  0  0  0  0  0  0
   -0.1462   -0.6268   -2.0518 H   0  0  0  0  0  0  0  0  0  0  0  0
   -2.6636   -0.6703   -1.9629 H   0  0  0  0  0  0  0  0  0  0  0  0
   -2.7613   -3.0571   -1.2030 H   0  0  0  0  0  0  0  0  0  0  0  0
   -1.4662   -2.6959   -2.3482 H   0  0  0  0  0  0  0  0  0  0  0  0
   -1.0819   -2.9240   -0.6475 H   0  0  0  0  0  0  0  0  0  0  0  0
   -3.2205    0.3366    0.0751 H   0  0  0  0  0  0  0  0  0  0  0  0
   -3.6721   -1.3579    0.2618 H   0  0  0  0  0  0  0  0  0  0  0  0
 39  1  1  0
  1  2  1  0
  2 40  1  1
  2  3  1  0
  3 41  1  0
  3 42  1  0
  3  4  1  0
  4  5  1  0
  5  6  2  0
  6  7  1  0
  7 43  1  0
  7  8  2  0
  8  9  1  0
  8 10  1  0
 10 11  1  0
 11 44  1  0
 11 12  1  0
 12 13  2  0
 13 45  1  0
 13 14  1  0
 14 46  1  0
 14 15  2  0
 15 16  1  0
 12 17  1  0
 16 17  2  0
 17 47  1  0
 16 18  1  0
 18 19  2  0
 19 20  1  0
 20 21  2  0
 15 22  1  0
 20 22  1  0
 22 23  1  0
 23 48  1  0
 23 49  1  0
 23 50  1  0
 19 24  1  0
 24 25  1  0
 25 51  1  0
 25 52  1  0
 25 26  1  0
 26 27  1  0
 26 28  1  0
 26 29  1  0
 29 53  1  6
 29 30  1  0
 30 54  1  0
 30 31  1  0
 31 55  1  0
 31 56  1  0
 30 32  1  0
 31 32  1  0
 32 57  1  0
 32 58  1  0
 18 33  1  0
 29 33  1  0
 33 59  1  0
  5 34  1  0
 10 34  2  0
  4 35  1  0
 35 60  1  0
 35 61  1  0
 35 36  1  0
 36 62  1  6
 36 37  1  0
 37 63  1  0
 37 64  1  0
 37 65  1  0
  2 38  1  0
 36 38  1  0
 38 66  1  0
 38 67  1  0
M  END
>  <conformer_energy>  (1) 
118.96

>  <ligand_smiles>  (1) 
C[C@H]1C[C@@H](O)CN(c2ncc(Cl)c(Nc3ccc4c(c3)c3c(c(=O)n4C)OCC(F)(F)[C@H](C4CC4)N3)n2)C1

>  <ligand_conf_name>  (1) 
MOL_0_isomer_0_conf_0

>  <ligand_molecule_name>  (1) 
MOL_0_isomer_0

$$$$
