1OF6 - prepared_ligand9_conf_0
     RDKit          3D

 24 24  0  0  0  0  0  0  0  0999 V2000
   -0.9245   -2.3983    1.3209 O   0  0  0  0  0  0  0  0  0  0  0  0
   -0.4976   -1.2549    1.9085 C   0  0  0  0  0  0  0  0  0  0  0  0
   -0.0268   -1.2473    3.0381 O   0  0  0  0  0  0  0  0  0  0  0  0
   -0.7136    0.0043    1.0502 C   0  0  1  0  0  0  0  0  0  0  0  0
   -0.4882    1.2273    1.8589 N   0  0  0  0  0  0  0  0  0  0  0  0
    0.1411   -0.0131   -0.2309 C   0  0  0  0  0  0  0  0  0  0  0  0
    1.6382    0.0292   -0.0212 C   0  0  0  0  0  0  0  0  0  0  0  0
    2.3692   -1.1494    0.1834 C   0  0  0  0  0  0  0  0  0  0  0  0
    3.7501   -1.0979    0.3816 C   0  0  0  0  0  0  0  0  0  0  0  0
    4.4035    0.1278    0.3769 C   0  0  0  0  0  0  0  0  0  0  0  0
    5.7525    0.1300    0.5744 O   0  0  0  0  0  0  0  0  0  0  0  0
    3.6981    1.3090    0.1775 C   0  0  0  0  0  0  0  0  0  0  0  0
    2.3167    1.2578   -0.0212 C   0  0  0  0  0  0  0  0  0  0  0  0
   -1.3440   -2.2785    0.4486 H   0  0  0  0  0  0  0  0  0  0  0  0
   -1.7737    0.0120    0.7689 H   0  0  0  0  0  0  0  0  0  0  0  0
    0.4868    1.2046    2.1780 H   0  0  0  0  0  0  0  0  0  0  0  0
   -1.0138    1.1275    2.7322 H   0  0  0  0  0  0  0  0  0  0  0  0
   -0.0959   -0.9046   -0.8261 H   0  0  0  0  0  0  0  0  0  0  0  0
   -0.1491    0.8353   -0.8659 H   0  0  0  0  0  0  0  0  0  0  0  0
    1.8771   -2.1193    0.1951 H   0  0  0  0  0  0  0  0  0  0  0  0
    4.3137   -2.0125    0.5439 H   0  0  0  0  0  0  0  0  0  0  0  0
    6.0628    1.0501    0.5744 H   0  0  0  0  0  0  0  0  0  0  0  0
    4.1995    2.2714    0.1743 H   0  0  0  0  0  0  0  0  0  0  0  0
    1.7677    2.1860   -0.1710 H   0  0  0  0  0  0  0  0  0  0  0  0
 14  1  1  0
  1  2  1  0
  2  3  2  0
  2  4  1  0
  4 15  1  6
  4  5  1  0
  5 16  1  0
  5 17  1  0
  4  6  1  0
  6 18  1  0
  6 19  1  0
  6  7  1  0
  7  8  2  0
  8 20  1  0
  8  9  1  0
  9 21  1  0
  9 10  2  0
 10 11  1  0
 11 22  1  0
 10 12  1  0
 12 23  1  0
  7 13  1  0
 12 13  2  0
 13 24  1  0
M  END
>  <conformer_energy>  (1) 
47.92

>  <ligand_smiles>  (1) 
N[C@@H](Cc1ccc(O)cc1)C(=O)O

>  <ligand_conf_name>  (1) 
1OF6 - prepared_ligand9_conf_0

>  <ligand_molecule_name>  (1) 
1OF6 - prepared_ligand9

>  <fragInfo>  (1) 
7 8 9 10 11 12 13 20 21 22 23 24
1 2 3 14
4 5 15 16 17
6 18 19


>  <torsionInfo>  (1) 
6 7 3 0
2 4 1 2
4 6 2 3


>  <atomInfo>  (1) 
1  -0.480078 OA
2  0.320316  C 
3  -0.250586 OA
4  0.107188  C 
5  -0.318162 NA
6  -0.001785 C 
7  -0.045610 A 
8  -0.055294 A 
9  -0.019954 A 
10 0.115095  A 
11 -0.507967 OA
12 -0.019954 A 
13 -0.055294 A 
14 0.296331  HD
15 0.058835  H 
16 0.119218  HD
17 0.119218  HD
18 0.033806  H 
19 0.033806  H 
20 0.062698  H 
21 0.066191  H 
22 0.293092  HD
23 0.066191  H 
24 0.062698  H 


$$$$
