MOL_0_isomer_0_conf_0
     RDKit          3D

 27 29  0  0  0  0  0  0  0  0999 V2000
   -2.1261   -0.5081    1.0031 C   0  0  0  0  0  0  0  0  0  0  0  0
   -0.7283   -0.4656    1.0207 C   0  0  0  0  0  0  0  0  0  0  0  0
   -0.0129    0.0722   -0.0612 C   0  0  0  0  0  0  0  0  0  0  0  0
    1.4624    0.1151   -0.0663 C   0  0  0  0  0  0  0  0  0  0  0  0
    2.0356   -0.2505   -1.2749 O   0  0  0  0  0  0  0  0  0  0  0  0
    3.4036   -0.2381   -1.3783 C   0  0  0  0  0  0  0  0  0  0  0  0
    3.9542   -0.6211   -2.6013 C   0  0  0  0  0  0  0  0  0  0  0  0
    5.3410   -0.6277   -2.7679 C   0  0  0  0  0  0  0  0  0  0  0  0
    6.1765   -0.2520   -1.7138 C   0  0  0  0  0  0  0  0  0  0  0  0
    5.6270    0.1312   -0.4896 C   0  0  0  0  0  0  0  0  0  0  0  0
    4.2385    0.1357   -0.3286 C   0  0  0  0  0  0  0  0  0  0  0  0
    3.6289    0.5342    0.9481 C   0  0  0  0  0  0  0  0  0  0  0  0
    4.2947    0.8761    1.9164 O   0  0  0  0  0  0  0  0  0  0  0  0
    2.1588    0.5020    1.0126 C   0  0  0  0  0  0  0  0  0  0  0  0
   -0.7311    0.5524   -1.1677 C   0  0  0  0  0  0  0  0  0  0  0  0
   -2.1286    0.5117   -1.1876 C   0  0  0  0  0  0  0  0  0  0  0  0
   -2.8192   -0.0175   -0.1006 C   0  0  0  0  0  0  0  0  0  0  0  0
   -4.7080   -0.0752   -0.1254 Br  0  0  0  0  0  0  0  0  0  0  0  0
   -2.6601   -0.9292    1.8511 H   0  0  0  0  0  0  0  0  0  0  0  0
   -0.2066   -0.8704    1.8855 H   0  0  0  0  0  0  0  0  0  0  0  0
    3.3068   -0.9150   -3.4234 H   0  0  0  0  0  0  0  0  0  0  0  0
    5.7714   -0.9266   -3.7210 H   0  0  0  0  0  0  0  0  0  0  0  0
    7.2561   -0.2580   -1.8458 H   0  0  0  0  0  0  0  0  0  0  0  0
    6.2765    0.4240    0.3325 H   0  0  0  0  0  0  0  0  0  0  0  0
    1.7094    0.8097    1.9478 H   0  0  0  0  0  0  0  0  0  0  0  0
   -0.2060    0.9702   -2.0248 H   0  0  0  0  0  0  0  0  0  0  0  0
   -2.6635    0.8934   -2.0533 H   0  0  0  0  0  0  0  0  0  0  0  0
 19  1  1  0
  1  2  2  0
  2 20  1  0
  2  3  1  0
  3  4  1  0
  4  5  1  0
  5  6  1  0
  6  7  2  0
  7 21  1  0
  7  8  1  0
  8 22  1  0
  8  9  2  0
  9 23  1  0
  9 10  1  0
 10 24  1  0
  6 11  1  0
 10 11  2  0
 11 12  1  0
 12 13  2  0
  4 14  2  0
 12 14  1  0
 14 25  1  0
  3 15  2  0
 15 26  1  0
 15 16  1  0
 16 27  1  0
  1 17  1  0
 16 17  2  0
 17 18  1  0
M  END
>  <conformer_energy>  (1) 
50.36

>  <ligand_smiles>  (1) 
O=c1cc(-c2ccc(Br)cc2)oc2ccccc12

>  <ligand_conf_name>  (1) 
MOL_0_isomer_0_conf_0

>  <ligand_molecule_name>  (1) 
MOL_0_isomer_0

$$$$
