MOL_0_isomer_0_conf_0
     RDKit          3D

 19 19  0  0  0  0  0  0  0  0999 V2000
    2.0810    0.4641    1.1914 C   0  0  0  0  0  0  0  0  0  0  0  0
    3.3465    0.4517    1.4418 N   0  0  0  0  0  0  0  0  0  0  0  0
    4.1720    0.0168    0.4421 N   0  0  0  0  0  0  0  0  0  0  0  0
    5.5900    0.0158    0.7578 C   0  0  0  0  0  0  0  0  0  0  0  0
    3.7241   -0.4035   -0.8040 C   0  0  0  0  0  0  0  0  0  0  0  0
    4.4825   -0.7921   -1.6928 O   0  0  0  0  0  0  0  0  0  0  0  0
    2.2408   -0.3597   -1.0179 C   0  0  0  0  0  0  0  0  0  0  0  0
    1.7172   -0.8918   -2.5857 Cl  0  0  0  0  0  0  0  0  0  0  0  0
    1.3872    0.0596   -0.0667 C   0  0  0  0  0  0  0  0  0  0  0  0
    0.0029    0.1812   -0.0463 N   0  0  0  0  0  0  0  0  0  0  0  0
   -0.9513   -0.1219   -1.0868 C   0  0  0  0  0  0  0  0  0  0  0  0
    1.4173    0.8153    1.9995 H   0  0  0  0  0  0  0  0  0  0  0  0
    5.7561   -0.6355    1.6211 H   0  0  0  0  0  0  0  0  0  0  0  0
    5.8940    1.0367    1.0074 H   0  0  0  0  0  0  0  0  0  0  0  0
    6.1949   -0.3413   -0.0793 H   0  0  0  0  0  0  0  0  0  0  0  0
   -0.4048    0.5316    0.8170 H   0  0  0  0  0  0  0  0  0  0  0  0
   -0.7800    0.4971   -1.9722 H   0  0  0  0  0  0  0  0  0  0  0  0
   -1.9629    0.0932   -0.7275 H   0  0  0  0  0  0  0  0  0  0  0  0
   -0.9183   -1.1816   -1.3564 H   0  0  0  0  0  0  0  0  0  0  0  0
 12  1  1  0
  1  2  2  0
  2  3  1  0
  3  4  1  0
  4 13  1  0
  4 14  1  0
  4 15  1  0
  3  5  1  0
  5  6  2  0
  5  7  1  0
  7  8  1  0
  1  9  1  0
  7  9  2  0
  9 10  1  0
 10 16  1  0
 10 11  1  0
 11 17  1  0
 11 18  1  0
 11 19  1  0
M  END
>  <conformer_energy>  (1) 
85.42

>  <ligand_smiles>  (1) 
CNc1cnn(C)c(=O)c1Cl

>  <ligand_conf_name>  (1) 
MOL_0_isomer_0_conf_0

>  <ligand_molecule_name>  (1) 
MOL_0_isomer_0

$$$$
