MOL_0_isomer_0_conf_0
     RDKit          3D

 55 59  0  0  0  0  0  0  0  0999 V2000
    8.1253    1.4557    6.0093 C   0  0  0  0  0  0  0  0  0  0  0  0
    8.2358    2.2900    4.8961 C   0  0  0  0  0  0  0  0  0  0  0  0
    7.0881    2.8596    4.3193 C   0  0  0  0  0  0  0  0  0  0  0  0
    7.2008    3.7143    3.0744 C   0  0  0  0  0  0  0  0  0  0  0  0
    7.1799    2.8666    1.8938 N   0  0  0  0  0  0  0  0  0  0  0  0
    6.0346    2.4211    1.3001 C   0  0  0  0  0  0  0  0  0  0  0  0
    4.8895    2.6385    1.6578 O   0  0  0  0  0  0  0  0  0  0  0  0
    6.4145    1.5898    0.1046 C   0  0  1  0  0  0  0  0  0  0  0  0
    7.8941    1.3022    0.3327 C   0  0  1  0  0  0  0  0  0  0  0  0
    8.3052    2.3225    1.3484 C   0  0  0  0  0  0  0  0  0  0  0  0
    9.4611    2.5009    1.6884 O   0  0  0  0  0  0  0  0  0  0  0  0
    7.9796   -0.0698    0.9939 C   0  0  2  0  0  0  0  0  0  0  0  0
    8.8047   -1.1036    0.2425 C   0  0  0  0  0  0  0  0  0  0  0  0
    8.1592   -2.4127    0.6584 C   0  0  0  0  0  0  0  0  0  0  0  0
    6.6723   -2.1188    0.5758 C   0  0  0  0  0  0  0  0  0  0  0  0
    6.5607   -0.6507    0.9490 N   0  0  2  0  0  4  0  0  0  0  0  0
    5.7630    0.2165   -0.0039 C   0  0  1  0  0  0  0  0  0  0  0  0
    4.2545    0.1442    0.1098 C   0  0  0  0  0  0  0  0  0  0  0  0
    3.4772    0.3936   -1.0360 C   0  0  0  0  0  0  0  0  0  0  0  0
    2.0766    0.4004   -0.9803 C   0  0  0  0  0  0  0  0  0  0  0  0
    1.4065    0.1669    0.2266 C   0  0  0  0  0  0  0  0  0  0  0  0
   -0.0647    0.2220    0.2989 C   0  0  0  0  0  0  0  0  0  0  0  0
   -0.7831   -0.5021   -0.5314 N   0  0  0  0  0  0  0  0  0  0  0  0
   -0.6370    1.0021    1.1901 N   0  0  0  0  0  4  0  0  0  0  0  0
    2.1752   -0.0942    1.3692 C   0  0  0  0  0  0  0  0  0  0  0  0
    3.5776   -0.1070    1.3131 C   0  0  0  0  0  0  0  0  0  0  0  0
    5.8302    2.5792    4.8782 C   0  0  0  0  0  0  0  0  0  0  0  0
    5.7242    1.7461    5.9924 C   0  0  0  0  0  0  0  0  0  0  0  0
    6.8714    1.1896    6.5450 C   0  0  0  0  0  0  0  0  0  0  0  0
    6.7633    0.3750    7.6012 F   0  0  0  0  0  0  0  0  0  0  0  0
    9.0087    1.0224    6.4703 H   0  0  0  0  0  0  0  0  0  0  0  0
    9.2253    2.5019    4.4906 H   0  0  0  0  0  0  0  0  0  0  0  0
    6.3647    4.4214    3.0267 H   0  0  0  0  0  0  0  0  0  0  0  0
    8.1323    4.2913    3.0994 H   0  0  0  0  0  0  0  0  0  0  0  0
    6.2470    2.1983   -0.7918 H   0  0  0  0  0  0  0  0  0  0  0  0
    8.4924    1.3986   -0.5778 H   0  0  0  0  0  0  0  0  0  0  0  0
    8.2599   -0.0469    2.0548 H   0  0  0  0  0  0  0  0  0  0  0  0
    9.8637   -1.0583    0.5130 H   0  0  0  0  0  0  0  0  0  0  0  0
    8.7244   -0.9715   -0.8433 H   0  0  0  0  0  0  0  0  0  0  0  0
    8.4509   -3.2471    0.0144 H   0  0  0  0  0  0  0  0  0  0  0  0
    8.4393   -2.6653    1.6882 H   0  0  0  0  0  0  0  0  0  0  0  0
    6.2894   -2.2540   -0.4404 H   0  0  0  0  0  0  0  0  0  0  0  0
    6.0756   -2.6976    1.2860 H   0  0  0  0  0  0  0  0  0  0  0  0
    6.1747   -0.5912    1.9007 H   0  0  0  0  0  0  0  0  0  0  0  0
    6.0251   -0.1709   -0.9998 H   0  0  0  0  0  0  0  0  0  0  0  0
    3.9521    0.6088   -1.9949 H   0  0  0  0  0  0  0  0  0  0  0  0
    1.5194    0.6275   -1.8894 H   0  0  0  0  0  0  0  0  0  0  0  0
   -0.3351   -1.1191   -1.2008 H   0  0  0  0  0  0  0  0  0  0  0  0
   -1.7956   -0.4930   -0.5246 H   0  0  0  0  0  0  0  0  0  0  0  0
   -0.0736    1.5819    1.8046 H   0  0  0  0  0  0  0  0  0  0  0  0
   -1.6421    1.0829    1.2802 H   0  0  0  0  0  0  0  0  0  0  0  0
    1.6912   -0.2847    2.3276 H   0  0  0  0  0  0  0  0  0  0  0  0
    4.1096   -0.2750    2.2469 H   0  0  0  0  0  0  0  0  0  0  0  0
    4.9273    3.0182    4.4563 H   0  0  0  0  0  0  0  0  0  0  0  0
    4.7593    1.5367    6.4444 H   0  0  0  0  0  0  0  0  0  0  0  0
 31  1  1  0
  1  2  2  0
  2 32  1  0
  2  3  1  0
  3  4  1  0
  4 33  1  0
  4 34  1  0
  4  5  1  0
  5  6  1  0
  6  7  2  0
  6  8  1  0
  8 35  1  6
  8  9  1  0
  9 36  1  6
  5 10  1  0
  9 10  1  0
 10 11  2  0
  9 12  1  0
 12 37  1  1
 12 13  1  0
 13 38  1  0
 13 39  1  0
 13 14  1  0
 14 40  1  0
 14 41  1  0
 14 15  1  0
 15 42  1  0
 15 43  1  0
 12 16  1  0
 15 16  1  0
 16 44  1  1
  8 17  1  0
 16 17  1  0
 17 45  1  6
 17 18  1  0
 18 19  2  0
 19 46  1  0
 19 20  1  0
 20 47  1  0
 20 21  2  0
 21 22  1  0
 22 23  1  0
 23 48  1  0
 23 49  1  0
 22 24  2  0
 24 50  1  0
 24 51  1  0
 21 25  1  0
 25 52  1  0
 18 26  1  0
 25 26  2  0
 26 53  1  0
  3 27  2  0
 27 54  1  0
 27 28  1  0
 28 55  1  0
  1 29  1  0
 28 29  2  0
 29 30  1  0
M  CHG  2  16   1  24   1
M  END
>  <conformer_energy>  (1) 
-3.93

>  <ligand_smiles>  (1) 
NC(=[NH2+])c1ccc([C@H]2[C@H]3C(=O)N(Cc4ccc(F)cc4)C(=O)[C@H]3[C@@H]3CCC[N@@H+]32)cc1

>  <ligand_conf_name>  (1) 
MOL_0_isomer_0_conf_0

>  <ligand_molecule_name>  (1) 
MOL_0_isomer_0

$$$$
