MOL_0_isomer_0_conf_0
     RDKit          3D

 61 63  0  0  0  0  0  0  0  0999 V2000
   -0.3133   -2.3194    0.2266 O   0  0  0  0  0  0  0  0  0  0  0  0
   -0.6174   -1.1813   -0.5784 C   0  0  1  0  0  0  0  0  0  0  0  0
   -0.0532    0.1956   -0.1420 C   0  0  1  0  0  0  0  0  0  0  0  0
    1.3433    0.3295   -0.3069 O   0  0  0  0  0  0  0  0  0  0  0  0
    2.2734   -0.5643    0.6897 P   0  0  2  0  0  5  0  0  0  0  0  0
    2.1981   -1.9265    0.0210 O   0  0  0  0  0  0  0  0  0  0  0  0
    1.7018   -0.3341    2.0566 O   0  0  0  0  0  1  0  0  0  0  0  0
    3.6582    0.1561    0.3848 O   0  0  0  0  0  0  0  0  0  0  0  0
    5.0113    0.1801    1.2396 P   0  0  1  0  0  5  0  0  0  0  0  0
    5.1946    1.5374    1.8750 O   0  0  0  0  0  0  0  0  0  0  0  0
    5.2489   -1.1047    1.9884 O   0  0  0  0  0  1  0  0  0  0  0  0
    6.0683    0.1609   -0.0100 O   0  0  0  0  0  0  0  0  0  0  0  0
    6.0702   -1.0033   -0.8071 C   0  0  0  0  0  0  0  0  0  0  0  0
    7.3093   -1.0181   -1.7055 C   0  0  1  0  0  0  0  0  0  0  0  0
    7.1711   -2.0664   -2.6954 O   0  0  0  0  0  0  0  0  0  0  0  0
    6.6999   -1.4667   -3.9175 C   0  0  1  0  0  0  0  0  0  0  0  0
    5.4203   -2.0520   -4.3359 N   0  0  0  0  0  0  0  0  0  0  0  0
    4.7002   -2.8890   -3.5022 C   0  0  0  0  0  0  0  0  0  0  0  0
    3.4481   -3.2755   -3.7741 C   0  0  0  0  0  0  0  0  0  0  0  0
    2.6553   -4.1947   -2.9068 C   0  0  0  0  0  0  0  0  0  0  0  0
    2.8199   -2.7011   -4.9809 C   0  0  0  0  0  0  0  0  0  0  0  0
    1.5995   -2.6371   -5.1300 O   0  0  0  0  0  0  0  0  0  0  0  0
    3.6767   -2.1389   -5.8810 N   0  0  0  0  0  0  0  0  0  0  0  0
    4.9427   -1.7042   -5.5884 C   0  0  0  0  0  0  0  0  0  0  0  0
    5.5363   -1.0019   -6.4032 O   0  0  0  0  0  0  0  0  0  0  0  0
    6.5836    0.0420   -3.6842 C   0  0  0  0  0  0  0  0  0  0  0  0
    7.4915    0.2690   -2.5051 C   0  0  2  0  0  0  0  0  0  0  0  0
    8.8348    0.3780   -2.9961 O   0  0  0  0  0  0  0  0  0  0  0  0
   -0.6948    1.1745   -1.0132 O   0  0  0  0  0  0  0  0  0  0  0  0
   -0.2350    1.0684   -2.3672 C   0  0  2  0  0  0  0  0  0  0  0  0
   -0.9428    2.1553   -3.1718 C   0  0  0  0  0  0  0  0  0  0  0  0
   -0.5156   -0.3320   -2.9438 C   0  0  1  0  0  0  0  0  0  0  0  0
    0.2323   -0.5627   -4.2183 N   0  0  0  0  0  4  0  0  0  0  0  0
   -0.1303   -1.4631   -1.9951 C   0  0  2  0  0  0  0  0  0  0  0  0
   -0.6997   -2.6874   -2.4970 O   0  0  0  0  0  0  0  0  0  0  0  0
    0.6775   -2.3445    0.3398 H   0  0  0  0  0  0  0  0  0  0  0  0
   -1.7132   -1.1232   -0.5902 H   0  0  0  0  0  0  0  0  0  0  0  0
   -0.3480    0.4319    0.8844 H   0  0  0  0  0  0  0  0  0  0  0  0
    6.0698   -1.9106   -0.1934 H   0  0  0  0  0  0  0  0  0  0  0  0
    5.1508   -1.0226   -1.3997 H   0  0  0  0  0  0  0  0  0  0  0  0
    8.2004   -1.2332   -1.1052 H   0  0  0  0  0  0  0  0  0  0  0  0
    7.4450   -1.6767   -4.6948 H   0  0  0  0  0  0  0  0  0  0  0  0
    5.1861   -3.2256   -2.5884 H   0  0  0  0  0  0  0  0  0  0  0  0
    2.3507   -5.0797   -3.4743 H   0  0  0  0  0  0  0  0  0  0  0  0
    1.7579   -3.7030   -2.5301 H   0  0  0  0  0  0  0  0  0  0  0  0
    3.2321   -4.5380   -2.0415 H   0  0  0  0  0  0  0  0  0  0  0  0
    3.3119   -1.8288   -6.7661 H   0  0  0  0  0  0  0  0  0  0  0  0
    6.8712    0.6084   -4.5759 H   0  0  0  0  0  0  0  0  0  0  0  0
    5.5546    0.3201   -3.4254 H   0  0  0  0  0  0  0  0  0  0  0  0
    7.2628    1.1888   -1.9608 H   0  0  0  0  0  0  0  0  0  0  0  0
    9.3922    0.5257   -2.2098 H   0  0  0  0  0  0  0  0  0  0  0  0
    0.8391    1.2897   -2.4001 H   0  0  0  0  0  0  0  0  0  0  0  0
   -2.0293    2.0168   -3.1457 H   0  0  0  0  0  0  0  0  0  0  0  0
   -0.6149    2.1661   -4.2150 H   0  0  0  0  0  0  0  0  0  0  0  0
   -0.7437    3.1406   -2.7364 H   0  0  0  0  0  0  0  0  0  0  0  0
   -1.5757   -0.4338   -3.2081 H   0  0  0  0  0  0  0  0  0  0  0  0
    0.2414   -1.5858   -4.4304 H   0  0  0  0  0  0  0  0  0  0  0  0
   -0.1533   -0.0792   -5.0299 H   0  0  0  0  0  0  0  0  0  0  0  0
    1.2280   -0.3348   -4.1082 H   0  0  0  0  0  0  0  0  0  0  0  0
    0.9528   -1.6098   -2.0142 H   0  0  0  0  0  0  0  0  0  0  0  0
   -0.6180   -3.3044   -1.7321 H   0  0  0  0  0  0  0  0  0  0  0  0
 36  1  1  0
  1  2  1  0
  2 37  1  6
  2  3  1  0
  3 38  1  1
  3  4  1  0
  4  5  1  0
  5  6  2  0
  5  7  1  1
  5  8  1  0
  8  9  1  0
  9 10  2  0
  9 11  1  1
  9 12  1  0
 12 13  1  0
 13 39  1  0
 13 40  1  0
 13 14  1  0
 14 41  1  1
 14 15  1  0
 15 16  1  0
 16 42  1  6
 16 17  1  0
 17 18  1  0
 18 43  1  0
 18 19  2  0
 19 20  1  0
 20 44  1  0
 20 45  1  0
 20 46  1  0
 19 21  1  0
 21 22  2  0
 21 23  1  0
 23 47  1  0
 17 24  1  0
 23 24  1  0
 24 25  2  0
 16 26  1  0
 26 48  1  0
 26 49  1  0
 14 27  1  0
 26 27  1  0
 27 50  1  1
 27 28  1  0
 28 51  1  0
  3 29  1  0
 29 30  1  0
 30 52  1  1
 30 31  1  0
 31 53  1  0
 31 54  1  0
 31 55  1  0
 30 32  1  0
 32 56  1  6
 32 33  1  0
 33 57  1  0
 33 58  1  0
 33 59  1  0
  2 34  1  0
 32 34  1  0
 34 60  1  1
 34 35  1  0
 35 61  1  0
M  CHG  3   7  -1  11  -1  33   1
M  END
>  <conformer_energy>  (1) 
-274.63

>  <ligand_smiles>  (1) 
Cc1cn([C@H]2C[C@H](O)[C@@H](CO[P@](=O)([O-])O[P@@](=O)([O-])O[C@H]3O[C@H](C)[C@@H]([NH3+])[C@H](O)[C@H]3O)O2)c(=O)[nH]c1=O

>  <ligand_conf_name>  (1) 
MOL_0_isomer_0_conf_0

>  <ligand_molecule_name>  (1) 
MOL_0_isomer_0

$$$$
