MOL_0_isomer_0_conf_0
     RDKit          3D

 33 35  0  0  0  0  0  0  0  0999 V2000
   -0.2027   -8.4615   -0.2088 O   0  0  0  0  0  0  0  0  0  0  0  0
    0.6260   -7.4352    0.1334 C   0  0  0  0  0  0  0  0  0  0  0  0
    1.4792   -7.6227    1.2117 C   0  0  0  0  0  0  0  0  0  0  0  0
    2.3459   -6.5959    1.5963 C   0  0  0  0  0  0  0  0  0  0  0  0
    2.3635   -5.3727    0.9079 C   0  0  0  0  0  0  0  0  0  0  0  0
    3.2859   -4.3144    1.3203 C   0  0  0  0  0  0  0  0  0  0  0  0
    4.5414   -4.3795    1.9299 C   0  0  0  0  0  0  0  0  0  0  0  0
    5.0841   -3.1337    2.1758 N   0  0  0  0  0  0  0  0  0  0  0  0
    4.1633   -2.3334    1.7228 C   0  0  0  0  0  0  0  0  0  0  0  0
    3.9667   -0.6379    1.6266 S   0  0  0  0  0  0  0  0  0  0  0  0
    2.3819   -0.9743    0.8795 C   0  0  0  0  0  0  0  0  0  0  0  0
    1.6498    0.1202    0.5435 N   0  0  0  0  0  0  0  0  0  0  0  0
    0.3265    0.0795   -0.0338 C   0  0  0  0  0  0  0  0  0  0  0  0
   -0.7441    0.3395    1.0238 C   0  0  0  0  0  0  0  0  0  0  0  0
   -0.8917   -0.7996    2.0223 C   0  0  0  0  0  0  0  0  0  0  0  0
    2.0455   -2.2206    0.7157 N   0  0  0  0  0  0  0  0  0  0  0  0
    3.0771   -2.9590    1.2038 N   0  0  0  0  0  0  0  0  0  0  0  0
    1.4935   -5.2103   -0.1807 C   0  0  0  0  0  0  0  0  0  0  0  0
    0.6249   -6.2365   -0.5686 C   0  0  0  0  0  0  0  0  0  0  0  0
   -0.7363   -8.1870   -0.9723 H   0  0  0  0  0  0  0  0  0  0  0  0
    1.4710   -8.5635    1.7547 H   0  0  0  0  0  0  0  0  0  0  0  0
    2.9981   -6.7634    2.4502 H   0  0  0  0  0  0  0  0  0  0  0  0
    5.0871   -5.2752    2.2012 H   0  0  0  0  0  0  0  0  0  0  0  0
    2.0425    1.0303    0.7520 H   0  0  0  0  0  0  0  0  0  0  0  0
    0.1402   -0.8675   -0.5534 H   0  0  0  0  0  0  0  0  0  0  0  0
    0.2652    0.8676   -0.7930 H   0  0  0  0  0  0  0  0  0  0  0  0
   -1.7064    0.4831    0.5181 H   0  0  0  0  0  0  0  0  0  0  0  0
   -0.5243    1.2675    1.5649 H   0  0  0  0  0  0  0  0  0  0  0  0
    0.0090   -0.9164    2.6322 H   0  0  0  0  0  0  0  0  0  0  0  0
   -1.0904   -1.7472    1.5116 H   0  0  0  0  0  0  0  0  0  0  0  0
   -1.7275   -0.5986    2.7002 H   0  0  0  0  0  0  0  0  0  0  0  0
    1.4842   -4.2838   -0.7504 H   0  0  0  0  0  0  0  0  0  0  0  0
   -0.0354   -6.0783   -1.4151 H   0  0  0  0  0  0  0  0  0  0  0  0
 20  1  1  0
  1  2  1  0
  2  3  2  0
  3 21  1  0
  3  4  1  0
  4 22  1  0
  4  5  2  0
  5  6  1  0
  6  7  2  0
  7 23  1  0
  7  8  1  0
  8  9  2  0
  9 10  1  0
 10 11  1  0
 11 12  1  0
 12 24  1  0
 12 13  1  0
 13 25  1  0
 13 26  1  0
 13 14  1  0
 14 27  1  0
 14 28  1  0
 14 15  1  0
 15 29  1  0
 15 30  1  0
 15 31  1  0
 11 16  2  0
  6 17  1  0
  9 17  1  0
 16 17  1  0
  5 18  1  0
 18 32  1  0
  2 19  1  0
 18 19  2  0
 19 33  1  0
M  END
>  <conformer_energy>  (1) 
-25.27

>  <ligand_smiles>  (1) 
CCCNc1nn2c(-c3ccc(O)cc3)cnc2s1

>  <ligand_conf_name>  (1) 
MOL_0_isomer_0_conf_0

>  <ligand_molecule_name>  (1) 
MOL_0_isomer_0

$$$$
