MOL_0_isomer_0_conf_0
     RDKit          3D

 37 39  0  0  0  0  0  0  0  0999 V2000
   10.6783    3.0958   -7.3256 O   0  0  0  0  0  0  0  0  0  0  0  0
    9.7273    2.7094   -6.4296 C   0  0  0  0  0  0  0  0  0  0  0  0
    8.4925    3.3370   -6.4811 C   0  0  0  0  0  0  0  0  0  0  0  0
    7.4921    2.9667   -5.5776 C   0  0  0  0  0  0  0  0  0  0  0  0
    7.7095    1.9675   -4.6130 C   0  0  0  0  0  0  0  0  0  0  0  0
    6.6661    1.6467   -3.7394 N   0  0  0  0  0  0  0  0  0  0  0  0
    6.5191    0.7460   -2.6894 C   0  0  0  0  0  0  0  0  0  0  0  0
    7.5114   -0.0683   -2.3013 N   0  0  0  0  0  0  0  0  0  0  0  0
    7.2682   -0.9039   -1.2768 C   0  0  0  0  0  0  0  0  0  0  0  0
    6.0704   -0.9579   -0.6152 C   0  0  0  0  0  0  0  0  0  0  0  0
    5.1085   -0.0893   -1.0752 C   0  0  0  0  0  0  0  0  0  0  0  0
    3.7846   -0.0220   -0.4650 C   0  0  0  0  0  0  0  0  0  0  0  0
    2.3784   -0.1540   -1.4424 S   0  0  0  0  0  0  0  0  0  0  0  0
    1.3859   -0.0285   -0.0462 C   0  0  0  0  0  0  0  0  0  0  0  0
    0.0456   -0.0743   -0.1635 N   0  0  0  0  0  0  0  0  0  0  0  0
   -0.7969    0.0421    0.9972 C   0  0  0  0  0  0  0  0  0  0  0  0
    2.0383    0.1053    1.0839 N   0  0  0  0  0  0  0  0  0  0  0  0
    3.4066    0.1277    0.8608 C   0  0  0  0  0  0  0  0  0  0  0  0
    4.2953    0.3127    2.0386 C   0  0  0  0  0  0  0  0  0  0  0  0
    5.3144    0.7617   -2.1010 N   0  0  0  0  0  0  0  0  0  0  0  0
    8.9672    1.3539   -4.5873 C   0  0  0  0  0  0  0  0  0  0  0  0
    9.9750    1.7189   -5.4890 C   0  0  0  0  0  0  0  0  0  0  0  0
   11.4803    2.5713   -7.1675 H   0  0  0  0  0  0  0  0  0  0  0  0
    8.3047    4.1113   -7.2190 H   0  0  0  0  0  0  0  0  0  0  0  0
    6.5313    3.4723   -5.6359 H   0  0  0  0  0  0  0  0  0  0  0  0
    5.8000    2.1527   -3.8557 H   0  0  0  0  0  0  0  0  0  0  0  0
    8.0959   -1.5499   -0.9995 H   0  0  0  0  0  0  0  0  0  0  0  0
    5.9008   -1.6479    0.1990 H   0  0  0  0  0  0  0  0  0  0  0  0
   -0.3890   -0.1709   -1.0718 H   0  0  0  0  0  0  0  0  0  0  0  0
   -0.6062   -0.7691    1.7078 H   0  0  0  0  0  0  0  0  0  0  0  0
   -1.8480   -0.0166    0.6978 H   0  0  0  0  0  0  0  0  0  0  0  0
   -0.6461    1.0025    1.5013 H   0  0  0  0  0  0  0  0  0  0  0  0
    3.7350    0.7148    2.8889 H   0  0  0  0  0  0  0  0  0  0  0  0
    5.1062    1.0122    1.8128 H   0  0  0  0  0  0  0  0  0  0  0  0
    4.7304   -0.6447    2.3407 H   0  0  0  0  0  0  0  0  0  0  0  0
    9.1916    0.5760   -3.8642 H   0  0  0  0  0  0  0  0  0  0  0  0
   10.9358    1.2176   -5.4351 H   0  0  0  0  0  0  0  0  0  0  0  0
 23  1  1  0
  1  2  1  0
  2  3  2  0
  3 24  1  0
  3  4  1  0
  4 25  1  0
  4  5  2  0
  5  6  1  0
  6 26  1  0
  6  7  1  0
  7  8  2  0
  8  9  1  0
  9 27  1  0
  9 10  2  0
 10 28  1  0
 10 11  1  0
 11 12  1  0
 12 13  1  0
 13 14  1  0
 14 15  1  0
 15 29  1  0
 15 16  1  0
 16 30  1  0
 16 31  1  0
 16 32  1  0
 14 17  2  0
 12 18  2  0
 17 18  1  0
 18 19  1  0
 19 33  1  0
 19 34  1  0
 19 35  1  0
  7 20  1  0
 11 20  2  0
  5 21  1  0
 21 36  1  0
  2 22  1  0
 21 22  2  0
 22 37  1  0
M  END
>  <conformer_energy>  (1) 
-92.25

>  <ligand_smiles>  (1) 
CNc1nc(C)c(-c2ccnc(Nc3ccc(O)cc3)n2)s1

>  <ligand_conf_name>  (1) 
MOL_0_isomer_0_conf_0

>  <ligand_molecule_name>  (1) 
MOL_0_isomer_0

$$$$
