MOL_0_isomer_0_conf_0
     RDKit          3D

 23 22  0  0  0  0  0  0  0  0999 V2000
   -0.1877   -1.8293   -2.9926 C   0  0  0  0  0  0  0  0  0  0  0  0
    0.4227   -0.6817   -2.6518 C   0  0  0  0  0  0  0  0  0  0  0  0
    0.0576    0.6301   -3.2859 C   0  0  0  0  0  0  0  0  0  0  0  0
    1.5147   -0.6415   -1.5911 C   0  0  0  0  0  0  0  0  0  0  0  0
    1.2704    0.3153   -0.4203 C   0  0  0  0  0  0  0  0  0  0  0  0
    0.1870   -0.1504    0.3634 O   0  0  0  0  0  0  0  0  0  0  0  0
    0.4132   -0.1854    1.9758 P   0  0  1  0  0  5  0  0  0  0  0  0
   -0.8671   -0.7817    2.5628 O   0  0  0  0  0  0  0  0  0  0  0  0
    1.6788   -0.9917    2.2472 O   0  0  0  0  0  1  0  0  0  0  0  0
    0.5338    1.3490    2.4101 O   0  0  0  0  0  0  0  0  0  0  0  0
    1.0551    2.7566    1.8172 P   0  0  0  0  0  5  0  0  0  0  0  0
    2.4802    2.5514    1.3111 O   0  0  0  0  0  0  0  0  0  0  0  0
    0.9966    3.7199    3.0075 O   0  0  0  0  0  1  0  0  0  0  0  0
    0.0786    3.1563    0.7121 O   0  0  0  0  0  1  0  0  0  0  0  0
    0.0667   -2.7579   -2.4917 H   0  0  0  0  0  0  0  0  0  0  0  0
   -0.9839   -1.8506   -3.7260 H   0  0  0  0  0  0  0  0  0  0  0  0
    0.9532    1.1320   -3.6661 H   0  0  0  0  0  0  0  0  0  0  0  0
   -0.4358    1.2880   -2.5643 H   0  0  0  0  0  0  0  0  0  0  0  0
   -0.6267    0.4964   -4.1308 H   0  0  0  0  0  0  0  0  0  0  0  0
    1.6724   -1.6501   -1.1874 H   0  0  0  0  0  0  0  0  0  0  0  0
    2.4487   -0.3518   -2.0889 H   0  0  0  0  0  0  0  0  0  0  0  0
    2.1904    0.3553    0.1695 H   0  0  0  0  0  0  0  0  0  0  0  0
    1.0505    1.3217   -0.7812 H   0  0  0  0  0  0  0  0  0  0  0  0
 15  1  1  0
  1 16  1  0
  1  2  2  0
  2  3  1  0
  3 17  1  0
  3 18  1  0
  3 19  1  0
  2  4  1  0
  4 20  1  0
  4 21  1  0
  4  5  1  0
  5 22  1  0
  5 23  1  0
  5  6  1  0
  6  7  1  0
  7  8  2  0
  7  9  1  6
  7 10  1  0
 10 11  1  0
 11 12  2  0
 11 13  1  0
 11 14  1  0
M  CHG  3   9  -1  13  -1  14  -1
M  END
>  <conformer_energy>  (1) 
2.01

>  <ligand_smiles>  (1) 
C=C(C)CCO[P@@](=O)([O-])OP(=O)([O-])[O-]

>  <ligand_conf_name>  (1) 
MOL_0_isomer_0_conf_0

>  <ligand_molecule_name>  (1) 
MOL_0_isomer_0

$$$$
