MOL_0_isomer_0_conf_0
     RDKit          3D

 60 64  0  0  0  0  0  0  0  0999 V2000
   -3.9777   -7.6475    0.4652 O   0  0  0  0  0  0  0  0  0  0  0  0
   -3.4909   -6.3402    0.0614 C   0  0  1  0  0  0  0  0  0  0  0  0
   -4.6498   -5.6172   -0.6026 C   0  0  1  0  0  0  0  0  0  0  0  0
   -5.5444   -6.5469   -1.2401 O   0  0  0  0  0  0  0  0  0  0  0  0
   -5.3286   -4.9085    0.5737 C   0  0  2  0  0  0  0  0  0  0  0  0
   -5.7694   -3.5512    0.3099 N   0  0  0  0  0  0  0  0  0  0  0  0
   -5.0936   -2.5791   -0.3793 C   0  0  0  0  0  0  0  0  0  0  0  0
   -5.7190   -1.4171   -0.3495 N   0  0  0  0  0  0  0  0  0  0  0  0
   -6.8777   -1.6685    0.3559 C   0  0  0  0  0  0  0  0  0  0  0  0
   -7.9629   -0.8494    0.7095 C   0  0  0  0  0  0  0  0  0  0  0  0
   -8.0457    0.4783    0.3623 N   0  0  0  0  0  0  0  0  0  0  0  0
   -8.9781   -1.3878    1.4187 N   0  0  0  0  0  0  0  0  0  0  0  0
   -8.8945   -2.6936    1.7566 C   0  0  0  0  0  0  0  0  0  0  0  0
   -7.9140   -3.5724    1.4778 N   0  0  0  0  0  0  0  0  0  0  0  0
   -6.9315   -2.9892    0.7703 C   0  0  0  0  0  0  0  0  0  0  0  0
   -4.4166   -4.8636    1.6943 O   0  0  0  0  0  0  0  0  0  0  0  0
   -3.1847   -5.5043    1.3050 C   0  0  2  0  0  0  0  0  0  0  0  0
   -2.1072   -4.4313    1.1721 C   0  0  0  0  0  0  0  0  0  0  0  0
   -0.9432   -4.9648    0.5782 O   0  0  0  0  0  0  0  0  0  0  0  0
   -0.5872   -4.4374   -0.9234 P   0  0  1  0  0  5  0  0  0  0  0  0
    0.4745   -5.3635   -1.4508 O   0  0  0  0  0  0  0  0  0  0  0  0
   -1.9139   -4.2318   -1.6145 O   0  0  0  0  0  1  0  0  0  0  0  0
    0.0605   -3.0290   -0.5132 O   0  0  0  0  0  0  0  0  0  0  0  0
    0.5837   -2.1709   -1.3997 C   0  0  0  0  0  0  0  0  0  0  0  0
    0.5873   -2.2630   -2.6225 O   0  0  0  0  0  0  0  0  0  0  0  0
    1.2630   -1.0151   -0.6558 C   0  0  1  0  0  0  0  0  0  0  0  0
    2.6303   -0.8114   -1.2240 N   0  0  0  0  0  0  0  0  0  0  0  0
    0.4307    0.2650   -0.8058 C   0  0  0  0  0  0  0  0  0  0  0  0
   -0.9128    0.1878   -0.1467 C   0  0  0  0  0  0  0  0  0  0  0  0
   -2.1179    0.0088   -0.7965 C   0  0  0  0  0  0  0  0  0  0  0  0
   -3.1132   -0.0419    0.1401 N   0  0  0  0  0  0  0  0  0  0  0  0
   -2.5824    0.0936    1.4007 C   0  0  0  0  0  0  0  0  0  0  0  0
   -3.2175    0.0737    2.6478 C   0  0  0  0  0  0  0  0  0  0  0  0
   -2.4172    0.2277    3.7832 C   0  0  0  0  0  0  0  0  0  0  0  0
   -1.0385    0.3936    3.6709 C   0  0  0  0  0  0  0  0  0  0  0  0
   -0.4204    0.4098    2.4145 C   0  0  0  0  0  0  0  0  0  0  0  0
   -1.2038    0.2526    1.2532 C   0  0  0  0  0  0  0  0  0  0  0  0
   -3.1752   -8.1616    0.6740 H   0  0  0  0  0  0  0  0  0  0  0  0
   -2.6498   -6.5213   -0.6105 H   0  0  0  0  0  0  0  0  0  0  0  0
   -4.3044   -4.9250   -1.3709 H   0  0  0  0  0  0  0  0  0  0  0  0
   -5.3459   -7.4074   -0.8091 H   0  0  0  0  0  0  0  0  0  0  0  0
   -6.2053   -5.4777    0.9001 H   0  0  0  0  0  0  0  0  0  0  0  0
   -4.1427   -2.7588   -0.8718 H   0  0  0  0  0  0  0  0  0  0  0  0
   -8.8792    0.9817    0.6078 H   0  0  0  0  0  0  0  0  0  0  0  0
   -7.3161    0.8793   -0.2066 H   0  0  0  0  0  0  0  0  0  0  0  0
   -9.7300   -3.0851    2.3268 H   0  0  0  0  0  0  0  0  0  0  0  0
   -2.8969   -6.1721    2.1255 H   0  0  0  0  0  0  0  0  0  0  0  0
   -1.8384   -4.0684    2.1702 H   0  0  0  0  0  0  0  0  0  0  0  0
   -2.4751   -3.5445    0.6458 H   0  0  0  0  0  0  0  0  0  0  0  0
    1.3867   -1.2800    0.3997 H   0  0  0  0  0  0  0  0  0  0  0  0
    2.5073   -0.7378   -2.2393 H   0  0  0  0  0  0  0  0  0  0  0  0
    3.1326   -1.6967   -1.1125 H   0  0  0  0  0  0  0  0  0  0  0  0
    0.2883    0.4968   -1.8694 H   0  0  0  0  0  0  0  0  0  0  0  0
    0.9791    1.1138   -0.3787 H   0  0  0  0  0  0  0  0  0  0  0  0
   -2.3502   -0.1195   -1.8457 H   0  0  0  0  0  0  0  0  0  0  0  0
   -4.0933   -0.2187   -0.0579 H   0  0  0  0  0  0  0  0  0  0  0  0
   -4.2907   -0.0650    2.7318 H   0  0  0  0  0  0  0  0  0  0  0  0
   -2.8802    0.2123    4.7669 H   0  0  0  0  0  0  0  0  0  0  0  0
   -0.4330    0.5051    4.5668 H   0  0  0  0  0  0  0  0  0  0  0  0
    0.6557    0.5320    2.3395 H   0  0  0  0  0  0  0  0  0  0  0  0
 38  1  1  0
  1  2  1  0
  2 39  1  6
  2  3  1  0
  3 40  1  6
  3  4  1  0
  4 41  1  0
  3  5  1  0
  5 42  1  1
  5  6  1  0
  6  7  1  0
  7 43  1  0
  7  8  2  0
  8  9  1  0
  9 10  1  0
 10 11  1  0
 11 44  1  0
 11 45  1  0
 10 12  2  0
 12 13  1  0
 13 46  1  0
 13 14  2  0
  9 15  2  0
  6 15  1  0
 14 15  1  0
  5 16  1  0
  2 17  1  0
 16 17  1  0
 17 47  1  1
 17 18  1  0
 18 48  1  0
 18 49  1  0
 18 19  1  0
 19 20  1  0
 20 21  2  0
 20 22  1  6
 20 23  1  0
 23 24  1  0
 24 25  2  0
 24 26  1  0
 26 50  1  1
 26 27  1  0
 27 51  1  0
 27 52  1  0
 26 28  1  0
 28 53  1  0
 28 54  1  0
 28 29  1  0
 29 30  2  0
 30 55  1  0
 30 31  1  0
 31 56  1  0
 31 32  1  0
 32 33  1  0
 33 57  1  0
 33 34  2  0
 34 58  1  0
 34 35  1  0
 35 59  1  0
 35 36  2  0
 36 60  1  0
 29 37  1  0
 32 37  2  0
 36 37  1  0
M  CHG  1  22  -1
M  END
>  <conformer_energy>  (1) 
13.68

>  <ligand_smiles>  (1) 
Nc1ncnc2c1ncn2[C@@H]1O[C@H](CO[P@@](=O)([O-])OC(=O)[C@@H](N)Cc2c[nH]c3ccccc23)[C@@H](O)[C@H]1O

>  <ligand_conf_name>  (1) 
MOL_0_isomer_0_conf_0

>  <ligand_molecule_name>  (1) 
MOL_0_isomer_0

$$$$
