MOL_0_isomer_0_conf_0
     RDKit          3D

 28 29  0  0  0  0  0  0  0  0999 V2000
    3.5947    1.3819   -0.9060 C   0  0  0  0  0  0  0  0  0  0  0  0
    4.3961    0.3526   -0.4421 C   0  0  0  0  0  0  0  0  0  0  0  0
    3.8849   -0.5435    0.4990 C   0  0  0  0  0  0  0  0  0  0  0  0
    2.5646   -0.4532    1.0064 C   0  0  0  0  0  0  0  0  0  0  0  0
    2.2728   -1.3753    2.0281 N   0  0  0  0  0  0  0  0  0  0  0  0
    1.7151   -1.2999    3.3231 C   0  0  0  0  0  0  0  0  0  0  0  0
    1.1785   -0.1098    3.8341 C   0  0  0  0  0  0  0  0  0  0  0  0
    0.6043   -0.0465    5.1069 C   0  0  0  0  0  0  0  0  0  0  0  0
    0.5743   -1.1756    5.9121 C   0  0  0  0  0  0  0  0  0  0  0  0
    1.1370   -2.3618    5.4465 C   0  0  0  0  0  0  0  0  0  0  0  0
    1.7245   -2.4486    4.1635 C   0  0  0  0  0  0  0  0  0  0  0  0
    2.3852   -3.7629    3.7616 C   0  0  0  0  0  0  0  0  0  0  0  0
    3.0494   -3.7919    2.6704 O   0  0  0  0  0  0  0  0  0  0  0  0
    2.2669   -4.7525    4.5598 O   0  0  0  0  0  1  0  0  0  0  0  0
    1.7476    0.5765    0.5070 C   0  0  0  0  0  0  0  0  0  0  0  0
    0.2839    0.7671    0.8106 C   0  0  0  0  0  0  0  0  0  0  0  0
   -0.0407    1.8929    1.3219 O   0  0  0  0  0  0  0  0  0  0  0  0
   -0.5330   -0.1232    0.4160 O   0  0  0  0  0  1  0  0  0  0  0  0
    2.2873    1.4878   -0.4371 C   0  0  0  0  0  0  0  0  0  0  0  0
    3.9695    2.0936   -1.6323 H   0  0  0  0  0  0  0  0  0  0  0  0
    5.4159    0.2424   -0.7925 H   0  0  0  0  0  0  0  0  0  0  0  0
    4.5322   -1.3334    0.8787 H   0  0  0  0  0  0  0  0  0  0  0  0
    2.6935   -2.3098    1.8870 H   0  0  0  0  0  0  0  0  0  0  0  0
    1.1973    0.7982    3.2417 H   0  0  0  0  0  0  0  0  0  0  0  0
    0.1754    0.8904    5.4463 H   0  0  0  0  0  0  0  0  0  0  0  0
    0.1231   -1.1378    6.8968 H   0  0  0  0  0  0  0  0  0  0  0  0
    1.1323   -3.2442    6.0838 H   0  0  0  0  0  0  0  0  0  0  0  0
    1.6410    2.2811   -0.8107 H   0  0  0  0  0  0  0  0  0  0  0  0
 20  1  1  0
  1  2  2  0
  2 21  1  0
  2  3  1  0
  3 22  1  0
  3  4  2  0
  4  5  1  0
  5 23  1  0
  5  6  1  0
  6  7  2  0
  7 24  1  0
  7  8  1  0
  8 25  1  0
  8  9  2  0
  9 26  1  0
  9 10  1  0
 10 27  1  0
  6 11  1  0
 10 11  2  0
 11 12  1  0
 12 13  2  0
 12 14  1  0
  4 15  1  0
 15 16  1  0
 16 17  2  0
 16 18  1  0
  1 19  1  0
 15 19  2  0
 19 28  1  0
M  CHG  2  14  -1  18  -1
M  END
>  <conformer_energy>  (1) 
129.13

>  <ligand_smiles>  (1) 
O=C([O-])c1ccccc1Nc1ccccc1C(=O)[O-]

>  <ligand_conf_name>  (1) 
MOL_0_isomer_0_conf_0

>  <ligand_molecule_name>  (1) 
MOL_0_isomer_0

$$$$
