MOL_0_isomer_0_conf_0
     RDKit          3D

 41 41  0  0  0  0  0  0  0  0999 V2000
    3.4265    6.4620   -2.8790 O   0  0  0  0  0  0  0  0  0  0  0  0
    2.5971    5.3162   -3.0231 C   0  0  0  0  0  0  0  0  0  0  0  0
    3.0352    4.2378   -2.0360 C   0  0  0  0  0  0  0  0  0  0  0  0
    2.3147    2.8880   -2.2334 C   0  0  2  0  0  0  0  0  0  0  0  0
    0.8172    2.9967   -1.9388 C   0  0  0  0  0  0  0  0  0  0  0  0
    3.0025    1.7540   -1.4293 C   0  0  1  0  0  0  0  0  0  0  0  0
    2.8802    1.8910    0.1052 C   0  0  0  0  0  0  0  0  0  0  0  0
    3.2848    2.8738    0.7214 O   0  0  0  0  0  0  0  0  0  0  0  0
    2.2983    0.8536    0.7742 N   0  0  0  0  0  0  0  0  0  0  0  0
    1.4698   -0.1731    0.1614 C   0  0  1  0  0  0  0  0  0  0  0  0
   -0.0264    0.1467    0.2927 C   0  0  0  0  0  0  0  0  0  0  0  0
   -0.6108   -0.1058    1.6986 C   0  0  2  0  0  0  0  0  0  0  0  0
    0.2209    0.5291    2.6816 O   0  0  0  0  0  0  0  0  0  0  0  0
   -0.6702   -1.5999    2.0399 C   0  0  0  0  0  0  0  0  0  0  0  0
   -2.0174    0.5256    1.7992 C   0  0  0  0  0  0  0  0  0  0  0  0
   -2.4797    0.4316    3.1491 O   0  0  0  0  0  0  0  0  0  0  0  0
    1.8397   -0.4674   -1.2991 C   0  0  0  0  0  0  0  0  0  0  0  0
    1.4068   -1.4449   -1.9066 O   0  0  0  0  0  0  0  0  0  0  0  0
    2.6299    0.4386   -1.9457 N   0  0  0  0  0  0  0  0  0  0  0  0
    3.3761    6.7470   -1.9497 H   0  0  0  0  0  0  0  0  0  0  0  0
    2.6906    4.9639   -4.0548 H   0  0  0  0  0  0  0  0  0  0  0  0
    1.5618    5.6256   -2.8550 H   0  0  0  0  0  0  0  0  0  0  0  0
    4.1190    4.0970   -2.1387 H   0  0  0  0  0  0  0  0  0  0  0  0
    2.8803    4.6177   -1.0196 H   0  0  0  0  0  0  0  0  0  0  0  0
    2.4106    2.6281   -3.2975 H   0  0  0  0  0  0  0  0  0  0  0  0
    0.6326    3.3122   -0.9072 H   0  0  0  0  0  0  0  0  0  0  0  0
    0.3344    3.7221   -2.6007 H   0  0  0  0  0  0  0  0  0  0  0  0
    0.3146    2.0396   -2.1068 H   0  0  0  0  0  0  0  0  0  0  0  0
    4.0811    1.8058   -1.6309 H   0  0  0  0  0  0  0  0  0  0  0  0
    2.2054    0.9725    1.7799 H   0  0  0  0  0  0  0  0  0  0  0  0
    1.7135   -1.0935    0.7021 H   0  0  0  0  0  0  0  0  0  0  0  0
   -0.1725    1.2039    0.0427 H   0  0  0  0  0  0  0  0  0  0  0  0
   -0.6089   -0.4260   -0.4402 H   0  0  0  0  0  0  0  0  0  0  0  0
   -0.3355    0.5747    3.4884 H   0  0  0  0  0  0  0  0  0  0  0  0
    0.3286   -2.0447    2.0848 H   0  0  0  0  0  0  0  0  0  0  0  0
   -1.1071   -1.7627    3.0317 H   0  0  0  0  0  0  0  0  0  0  0  0
   -1.2664   -2.1537    1.3075 H   0  0  0  0  0  0  0  0  0  0  0  0
   -1.9816    1.5911    1.5483 H   0  0  0  0  0  0  0  0  0  0  0  0
   -2.7322    0.0220    1.1404 H   0  0  0  0  0  0  0  0  0  0  0  0
   -3.3662    0.8344    3.1722 H   0  0  0  0  0  0  0  0  0  0  0  0
    2.8739    0.1926   -2.8969 H   0  0  0  0  0  0  0  0  0  0  0  0
 20  1  1  0
  1  2  1  0
  2 21  1  0
  2 22  1  0
  2  3  1  0
  3 23  1  0
  3 24  1  0
  3  4  1  0
  4 25  1  6
  4  5  1  0
  5 26  1  0
  5 27  1  0
  5 28  1  0
  4  6  1  0
  6 29  1  1
  6  7  1  0
  7  8  2  0
  7  9  1  0
  9 30  1  0
  9 10  1  0
 10 31  1  1
 10 11  1  0
 11 32  1  0
 11 33  1  0
 11 12  1  0
 12 13  1  1
 13 34  1  0
 12 14  1  0
 14 35  1  0
 14 36  1  0
 14 37  1  0
 12 15  1  0
 15 38  1  0
 15 39  1  0
 15 16  1  0
 16 40  1  0
 10 17  1  0
 17 18  2  0
  6 19  1  0
 17 19  1  0
 19 41  1  0
M  END
>  <conformer_energy>  (1) 
88.97

>  <ligand_smiles>  (1) 
C[C@@H](CCO)[C@@H]1NC(=O)[C@H](C[C@@](C)(O)CO)NC1=O

>  <ligand_conf_name>  (1) 
MOL_0_isomer_0_conf_0

>  <ligand_molecule_name>  (1) 
MOL_0_isomer_0

$$$$
