MOL_0_isomer_0_conf_0
     RDKit          3D

 47 51  0  0  0  0  0  0  0  0999 V2000
    2.1340   -1.4843    5.5870 C   0  0  0  0  0  0  0  0  0  0  0  0
    1.6370   -0.3837    6.1812 N   0  0  0  0  0  0  0  0  0  0  0  0
    1.3619    0.6428    5.3496 C   0  0  0  0  0  0  0  0  0  0  0  0
    0.8277    1.8611    5.9472 C   0  0  0  0  0  0  0  0  0  0  0  0
    0.7738    2.0799    7.3175 C   0  0  0  0  0  0  0  0  0  0  0  0
    0.2328    3.3173    7.5379 N   0  0  0  0  0  0  0  0  0  0  0  0
   -0.0711    3.9101    6.3457 C   0  0  0  0  0  0  0  0  0  0  0  0
   -0.6181    5.1372    6.2318 N   0  0  0  0  0  0  0  0  0  0  0  0
   -0.8279    5.4886    4.9381 C   0  0  0  0  0  0  0  0  0  0  0  0
   -0.5327    4.7088    3.8304 C   0  0  0  0  0  0  0  0  0  0  0  0
   -0.7875    5.1696    2.5990 F   0  0  0  0  0  0  0  0  0  0  0  0
    0.0287    3.4502    4.0039 C   0  0  0  0  0  0  0  0  0  0  0  0
    0.2790    3.0288    5.3234 C   0  0  0  0  0  0  0  0  0  0  0  0
    1.5578    0.6451    4.0176 N   0  0  0  0  0  0  0  0  0  0  0  0
    2.0511   -0.4772    3.4549 C   0  0  0  0  0  0  0  0  0  0  0  0
    2.3133   -0.5276    2.0887 N   0  0  0  0  0  0  0  0  0  0  0  0
    1.9646    0.5743    1.1857 C   0  0  1  0  0  0  0  0  0  0  0  0
    2.8803    1.8132    1.4059 C   0  0  2  0  0  0  0  0  0  0  0  0
    2.2951    2.9753    0.5822 C   0  0  0  0  0  0  0  0  0  0  0  0
    2.1692    2.5623   -0.8886 C   0  0  0  0  0  0  0  0  0  0  0  0
    2.8301    1.1892   -1.1174 C   0  0  1  0  0  0  0  0  0  0  0  0
    4.2873    1.2840   -0.6257 C   0  0  0  0  0  0  0  0  0  0  0  0
    4.3069    1.5332    0.8891 C   0  0  0  0  0  0  0  0  0  0  0  0
    2.1373    0.0944   -0.2773 C   0  0  2  0  0  0  0  0  0  0  0  0
    0.7740   -0.4196   -0.7494 C   0  0  0  0  0  0  0  0  0  0  0  0
    0.3415   -1.4178   -0.0997 O   0  0  0  0  0  0  0  0  0  0  0  0
    0.2593    0.1710   -1.7365 O   0  0  0  0  0  1  0  0  0  0  0  0
    2.3633   -1.5809    4.2361 C   0  0  0  0  0  0  0  0  0  0  0  0
    2.8733   -2.7063    3.7147 F   0  0  0  0  0  0  0  0  0  0  0  0
    2.3563   -2.3186    6.2421 H   0  0  0  0  0  0  0  0  0  0  0  0
    1.0803    1.4534    8.1452 H   0  0  0  0  0  0  0  0  0  0  0  0
    0.0695    3.7507    8.4342 H   0  0  0  0  0  0  0  0  0  0  0  0
   -1.2675    6.4713    4.7959 H   0  0  0  0  0  0  0  0  0  0  0  0
    0.2573    2.8222    3.1500 H   0  0  0  0  0  0  0  0  0  0  0  0
    2.0533   -1.4315    1.6825 H   0  0  0  0  0  0  0  0  0  0  0  0
    0.9206    0.8614    1.3742 H   0  0  0  0  0  0  0  0  0  0  0  0
    2.9303    2.1058    2.4587 H   0  0  0  0  0  0  0  0  0  0  0  0
    1.3118    3.2666    0.9684 H   0  0  0  0  0  0  0  0  0  0  0  0
    2.9383    3.8595    0.6684 H   0  0  0  0  0  0  0  0  0  0  0  0
    2.6442    3.3203   -1.5233 H   0  0  0  0  0  0  0  0  0  0  0  0
    1.1129    2.5411   -1.1768 H   0  0  0  0  0  0  0  0  0  0  0  0
    2.8092    0.9379   -2.1836 H   0  0  0  0  0  0  0  0  0  0  0  0
    4.8344    0.3625   -0.8574 H   0  0  0  0  0  0  0  0  0  0  0  0
    4.8099    2.0961   -1.1457 H   0  0  0  0  0  0  0  0  0  0  0  0
    4.9635    2.3831    1.1110 H   0  0  0  0  0  0  0  0  0  0  0  0
    4.7364    0.6669    1.4057 H   0  0  0  0  0  0  0  0  0  0  0  0
    2.7879   -0.7935   -0.3156 H   0  0  0  0  0  0  0  0  0  0  0  0
 30  1  1  0
  1  2  2  0
  2  3  1  0
  3  4  1  0
  4  5  2  0
  5 31  1  0
  5  6  1  0
  6 32  1  0
  6  7  1  0
  7  8  1  0
  8  9  2  0
  9 33  1  0
  9 10  1  0
 10 11  1  0
 10 12  2  0
 12 34  1  0
  4 13  1  0
  7 13  2  0
 12 13  1  0
  3 14  2  0
 14 15  1  0
 15 16  1  0
 16 35  1  0
 16 17  1  0
 17 36  1  6
 17 18  1  0
 18 37  1  1
 18 19  1  0
 19 38  1  0
 19 39  1  0
 19 20  1  0
 20 40  1  0
 20 41  1  0
 20 21  1  0
 21 42  1  6
 21 22  1  0
 22 43  1  0
 22 44  1  0
 18 23  1  0
 22 23  1  0
 23 45  1  0
 23 46  1  0
 17 24  1  0
 21 24  1  0
 24 47  1  1
 24 25  1  0
 25 26  2  0
 25 27  1  0
  1 28  1  0
 15 28  2  0
 28 29  1  0
M  CHG  1  27  -1
M  END
>  <conformer_energy>  (1) 
43.73

>  <ligand_smiles>  (1) 
O=C([O-])[C@H]1[C@H]2CC[C@H](CC2)[C@@H]1Nc1nc(-c2c[nH]c3ncc(F)cc23)ncc1F

>  <ligand_conf_name>  (1) 
MOL_0_isomer_0_conf_0

>  <ligand_molecule_name>  (1) 
MOL_0_isomer_0

$$$$
