MOL_0_isomer_0_conf_0
     RDKit          3D

 43 45  0  0  0  0  0  0  0  0999 V2000
    1.2994    1.3732   -4.8361 O   0  0  0  0  0  0  0  0  0  0  0  0
    2.1739    0.7490   -3.8765 C   0  0  1  0  0  0  0  0  0  0  0  0
    3.5247    1.4406   -3.9790 C   0  0  1  0  0  0  0  0  0  0  0  0
    3.8490    1.7401   -5.3368 O   0  0  0  0  0  0  0  0  0  0  0  0
    3.2780    2.6920   -3.1354 C   0  0  2  0  0  0  0  0  0  0  0  0
    4.4488    3.2582   -2.5016 N   0  0  0  0  0  0  0  0  0  0  0  0
    4.8646    4.5586   -2.6363 C   0  0  0  0  0  0  0  0  0  0  0  0
    5.9328    4.8155   -1.9113 N   0  0  0  0  0  0  0  0  0  0  0  0
    6.2242    3.6213   -1.2831 C   0  0  0  0  0  0  0  0  0  0  0  0
    7.2362    3.2480   -0.3821 C   0  0  0  0  0  0  0  0  0  0  0  0
    8.2047    4.1185    0.0624 N   0  0  0  0  0  0  0  0  0  0  0  0
    7.2600    1.9741    0.0713 N   0  0  0  0  0  0  0  0  0  0  0  0
    6.3133    1.1197   -0.3717 C   0  0  0  0  0  0  0  0  0  0  0  0
    5.3028    1.3596   -1.2314 N   0  0  0  0  0  0  0  0  0  0  0  0
    5.3155    2.6381   -1.6435 C   0  0  0  0  0  0  0  0  0  0  0  0
    2.3161    2.3505   -2.1139 O   0  0  0  0  0  0  0  0  0  0  0  0
    1.7280    1.0738   -2.4478 C   0  0  2  0  0  0  0  0  0  0  0  0
    2.1674   -0.0133   -1.4540 C   0  0  0  0  0  0  0  0  0  0  0  0
    1.9667    0.3969    0.3227 S   0  0  0  0  0  0  0  0  0  0  0  0
    0.2336    1.0100    0.3256 C   0  0  0  0  0  0  0  0  0  0  0  0
   -0.4034    0.9654    1.7139 C   0  0  1  0  0  0  0  0  0  0  0  0
   -1.0876   -0.3964    2.0028 C   0  0  0  0  0  0  0  0  0  0  0  0
   -1.7982   -0.8920    1.1020 O   0  0  0  0  0  0  0  0  0  0  0  0
   -0.7853   -0.7829    3.1792 O   0  0  0  0  0  1  0  0  0  0  0  0
    0.6155    1.2620    2.8023 N   0  0  0  0  0  4  0  0  0  0  0  0
    0.4414    0.9094   -4.7977 H   0  0  0  0  0  0  0  0  0  0  0  0
    2.2141   -0.3180   -4.1138 H   0  0  0  0  0  0  0  0  0  0  0  0
    4.3126    0.8031   -3.5689 H   0  0  0  0  0  0  0  0  0  0  0  0
    2.9891    1.8574   -5.7941 H   0  0  0  0  0  0  0  0  0  0  0  0
    2.8295    3.4829   -3.7503 H   0  0  0  0  0  0  0  0  0  0  0  0
    4.3519    5.2736   -3.2679 H   0  0  0  0  0  0  0  0  0  0  0  0
    8.9117    3.7685    0.6880 H   0  0  0  0  0  0  0  0  0  0  0  0
    8.2108    5.0655   -0.2882 H   0  0  0  0  0  0  0  0  0  0  0  0
    6.3755    0.1069    0.0167 H   0  0  0  0  0  0  0  0  0  0  0  0
    0.6409    1.2006   -2.4124 H   0  0  0  0  0  0  0  0  0  0  0  0
    3.2276   -0.2457   -1.5872 H   0  0  0  0  0  0  0  0  0  0  0  0
    1.6160   -0.9390   -1.6520 H   0  0  0  0  0  0  0  0  0  0  0  0
   -0.3533    0.4420   -0.4017 H   0  0  0  0  0  0  0  0  0  0  0  0
    0.2680    2.0511   -0.0131 H   0  0  0  0  0  0  0  0  0  0  0  0
   -1.1775    1.7356    1.8090 H   0  0  0  0  0  0  0  0  0  0  0  0
    1.5505    0.9738    2.4874 H   0  0  0  0  0  0  0  0  0  0  0  0
    0.3385    0.5595    3.5314 H   0  0  0  0  0  0  0  0  0  0  0  0
    0.5903    2.2024    3.1886 H   0  0  0  0  0  0  0  0  0  0  0  0
 26  1  1  0
  1  2  1  0
  2 27  1  1
  2  3  1  0
  3 28  1  1
  3  4  1  0
  4 29  1  0
  3  5  1  0
  5 30  1  6
  5  6  1  0
  6  7  1  0
  7 31  1  0
  7  8  2  0
  8  9  1  0
  9 10  1  0
 10 11  1  0
 11 32  1  0
 11 33  1  0
 10 12  2  0
 12 13  1  0
 13 34  1  0
 13 14  2  0
  9 15  2  0
  6 15  1  0
 14 15  1  0
  5 16  1  0
  2 17  1  0
 16 17  1  0
 17 35  1  6
 17 18  1  0
 18 36  1  0
 18 37  1  0
 18 19  1  0
 19 20  1  0
 20 38  1  0
 20 39  1  0
 20 21  1  0
 21 40  1  6
 21 22  1  0
 22 23  2  0
 22 24  1  0
 21 25  1  0
 25 41  1  0
 25 42  1  0
 25 43  1  0
M  CHG  2  24  -1  25   1
M  END
>  <conformer_energy>  (1) 
74.73

>  <ligand_smiles>  (1) 
Nc1ncnc2c1ncn2[C@@H]1O[C@H](CSC[C@H]([NH3+])C(=O)[O-])[C@@H](O)[C@H]1O

>  <ligand_conf_name>  (1) 
MOL_0_isomer_0_conf_0

>  <ligand_molecule_name>  (1) 
MOL_0_isomer_0

$$$$
