MOL_0_isomer_0_conf_0
     RDKit          3D

 20 20  0  0  0  0  0  0  0  0999 V2000
   -1.9137    0.6995   -2.0287 O   0  0  0  0  0  0  0  0  0  0  0  0
   -1.2514    0.1248   -0.9120 C   0  0  2  0  0  0  0  0  0  0  0  0
   -1.3316    1.0017    0.2109 O   0  0  0  0  0  0  0  0  0  0  0  0
   -0.7085    2.2688   -0.0224 C   0  0  0  0  0  0  0  0  0  0  0  0
    0.7747    2.1310   -0.3709 C   0  0  2  0  0  0  0  0  0  0  0  0
    1.3108    3.4060   -0.7312 O   0  0  0  0  0  0  0  0  0  0  0  0
    0.9805    1.1305   -1.5178 C   0  0  2  0  0  0  0  0  0  0  0  0
    0.5621    1.7538   -2.7477 O   0  0  0  0  0  0  0  0  0  0  0  0
    0.2235   -0.1787   -1.2472 C   0  0  1  0  0  0  0  0  0  0  0  0
    0.8418   -0.8956   -0.1703 O   0  0  0  0  0  0  0  0  0  0  0  0
   -2.8637    0.5885   -1.8417 H   0  0  0  0  0  0  0  0  0  0  0  0
   -1.7601   -0.8059   -0.6376 H   0  0  0  0  0  0  0  0  0  0  0  0
   -1.2547    2.8186   -0.7987 H   0  0  0  0  0  0  0  0  0  0  0  0
   -0.8140    2.8655    0.8907 H   0  0  0  0  0  0  0  0  0  0  0  0
    1.3131    1.7753    0.5151 H   0  0  0  0  0  0  0  0  0  0  0  0
    1.2413    3.4553   -1.7076 H   0  0  0  0  0  0  0  0  0  0  0  0
    2.0538    0.9360   -1.6237 H   0  0  0  0  0  0  0  0  0  0  0  0
   -0.4001    1.5883   -2.8515 H   0  0  0  0  0  0  0  0  0  0  0  0
    0.2670   -0.8082   -2.1432 H   0  0  0  0  0  0  0  0  0  0  0  0
    0.4954   -0.5317    0.6668 H   0  0  0  0  0  0  0  0  0  0  0  0
 11  1  1  0
  1  2  1  0
  2 12  1  1
  2  3  1  0
  3  4  1  0
  4 13  1  0
  4 14  1  0
  4  5  1  0
  5 15  1  1
  5  6  1  0
  6 16  1  0
  5  7  1  0
  7 17  1  6
  7  8  1  0
  8 18  1  0
  2  9  1  0
  7  9  1  0
  9 19  1  6
  9 10  1  0
 10 20  1  0
M  END
>  <conformer_energy>  (1) 
70.56

>  <ligand_smiles>  (1) 
O[C@@H]1[C@@H](O)[C@@H](O)CO[C@H]1O

>  <ligand_conf_name>  (1) 
MOL_0_isomer_0_conf_0

>  <ligand_molecule_name>  (1) 
MOL_0_isomer_0

$$$$
