MOL_0_isomer_0_conf_0
     RDKit          3D

 32 33  0  0  0  0  0  0  0  0999 V2000
    2.4955    3.1068   -1.9416 O   0  0  0  0  0  0  0  0  0  0  0  0
    1.4692    2.4991   -1.1034 C   0  0  1  0  0  0  0  0  0  0  0  0
    0.1967    2.3928   -1.9244 C   0  0  1  0  0  0  0  0  0  0  0  0
   -0.0273    3.6158   -2.6486 O   0  0  0  0  0  0  0  0  0  0  0  0
    0.5443    1.1763   -2.7963 C   0  0  2  0  0  0  0  0  0  0  0  0
   -0.5979    0.4547   -3.3693 N   0  0  0  0  0  0  0  0  0  0  0  0
   -1.5729   -0.0723   -2.5393 C   0  0  0  0  0  0  0  0  0  0  0  0
   -2.6357   -0.7312   -3.0047 C   0  0  0  0  0  0  0  0  0  0  0  0
   -2.7692   -0.9126   -4.4528 C   0  0  0  0  0  0  0  0  0  0  0  0
   -3.7095   -1.5268   -4.9485 O   0  0  0  0  0  0  0  0  0  0  0  0
   -1.7781   -0.3605   -5.2110 N   0  0  0  0  0  0  0  0  0  0  0  0
   -0.6807    0.3227   -4.7450 C   0  0  0  0  0  0  0  0  0  0  0  0
    0.1312    0.7539   -5.5644 O   0  0  0  0  0  0  0  0  0  0  0  0
    1.3463    0.2769   -1.9923 O   0  0  0  0  0  0  0  0  0  0  0  0
    1.8203    1.0402   -0.8370 C   0  0  2  0  0  0  0  0  0  0  0  0
    1.2253    0.4778    0.4599 C   0  0  0  0  0  0  0  0  0  0  0  0
   -0.1812    0.4261    0.4001 O   0  0  0  0  0  0  0  0  0  0  0  0
   -1.0344    1.4151    1.3798 P   0  0  0  0  0  5  0  0  0  0  0  0
   -0.5264    2.8004    1.0077 O   0  0  0  0  0  0  0  0  0  0  0  0
   -0.6572    0.9497    2.7730 O   0  0  0  0  0  1  0  0  0  0  0  0
   -2.4631    1.1444    0.9434 O   0  0  0  0  0  1  0  0  0  0  0  0
    2.0061    3.8150   -2.4074 H   0  0  0  0  0  0  0  0  0  0  0  0
    1.4148    3.1329   -0.2194 H   0  0  0  0  0  0  0  0  0  0  0  0
   -0.6907    2.1978   -1.3243 H   0  0  0  0  0  0  0  0  0  0  0  0
   -0.5081    4.1542   -1.9842 H   0  0  0  0  0  0  0  0  0  0  0  0
    1.1913    1.5077   -3.6176 H   0  0  0  0  0  0  0  0  0  0  0  0
   -1.4653    0.0746   -1.4674 H   0  0  0  0  0  0  0  0  0  0  0  0
   -3.3984   -1.1261   -2.3478 H   0  0  0  0  0  0  0  0  0  0  0  0
   -1.8463   -0.4639   -6.2073 H   0  0  0  0  0  0  0  0  0  0  0  0
    2.9083    0.9105   -0.8055 H   0  0  0  0  0  0  0  0  0  0  0  0
    1.5752    1.0530    1.3240 H   0  0  0  0  0  0  0  0  0  0  0  0
    1.5680   -0.5542    0.5891 H   0  0  0  0  0  0  0  0  0  0  0  0
 22  1  1  0
  1  2  1  0
  2 23  1  1
  2  3  1  0
  3 24  1  1
  3  4  1  0
  4 25  1  0
  3  5  1  0
  5 26  1  6
  5  6  1  0
  6  7  1  0
  7 27  1  0
  7  8  2  0
  8 28  1  0
  8  9  1  0
  9 10  2  0
  9 11  1  0
 11 29  1  0
  6 12  1  0
 11 12  1  0
 12 13  2  0
  5 14  1  0
  2 15  1  0
 14 15  1  0
 15 30  1  1
 15 16  1  0
 16 31  1  0
 16 32  1  0
 16 17  1  0
 17 18  1  0
 18 19  2  0
 18 20  1  0
 18 21  1  0
M  CHG  2  20  -1  21  -1
M  END
>  <conformer_energy>  (1) 
-115.30

>  <ligand_smiles>  (1) 
O=c1ccn([C@@H]2O[C@H](COP(=O)([O-])[O-])[C@@H](O)[C@H]2O)c(=O)[nH]1

>  <ligand_conf_name>  (1) 
MOL_0_isomer_0_conf_0

>  <ligand_molecule_name>  (1) 
MOL_0_isomer_0

$$$$
