1SQN - prepared_ligand2_conf_0
     RDKit          3D

 48 51  0  0  0  0  0  0  0  0999 V2000
   -1.2125    0.0424    0.0296 C   0  0  0  0  0  0  0  0  0  0  0  0
   -0.0113    0.0194    0.0067 C   0  0  0  0  0  0  0  0  0  0  0  0
    1.4680    0.0051   -0.0057 C   0  0  2  0  0  0  0  0  0  0  0  0
    1.9162    0.0103    1.3424 O   0  0  0  0  0  0  0  0  0  0  0  0
    2.0076    1.2546   -0.7514 C   0  0  0  0  0  0  0  0  0  0  0  0
    2.3897    0.7936   -2.1731 C   0  0  0  0  0  0  0  0  0  0  0  0
    1.9092   -0.6532   -2.2552 C   0  0  1  0  0  0  0  0  0  0  0  0
    2.5362   -1.5766   -3.3032 C   0  0  2  0  0  0  0  0  0  0  0  0
    2.4145   -1.0009   -4.7286 C   0  0  0  0  0  0  0  0  0  0  0  0
    2.9567   -1.9679   -5.7854 C   0  0  0  0  0  0  0  0  0  0  0  0
    2.2987   -3.3107   -5.6147 C   0  0  0  0  0  0  0  0  0  0  0  0
    1.5200   -3.8446   -6.5700 C   0  0  0  0  0  0  0  0  0  0  0  0
    0.7188   -5.0639   -6.3013 C   0  0  0  0  0  0  0  0  0  0  0  0
    0.0482   -5.5578   -7.2043 O   0  0  0  0  0  0  0  0  0  0  0  0
    0.6874   -5.5936   -4.8871 C   0  0  0  0  0  0  0  0  0  0  0  0
    2.0408   -5.3987   -4.2236 C   0  0  0  0  0  0  0  0  0  0  0  0
    2.5107   -3.9351   -4.2458 C   0  0  2  0  0  0  0  0  0  0  0  0
    1.8621   -2.9882   -3.2009 C   0  0  1  0  0  0  0  0  0  0  0  0
    1.9047   -3.5429   -1.7586 C   0  0  0  0  0  0  0  0  0  0  0  0
    1.3870   -2.5445   -0.7061 C   0  0  0  0  0  0  0  0  0  0  0  0
    2.0866   -1.1766   -0.8120 C   0  0  2  0  0  0  0  0  0  0  0  0
    3.5763   -1.3603   -0.3943 C   0  0  0  0  0  0  0  0  0  0  0  0
   -2.2779    0.0569    0.0515 H   0  0  0  0  0  0  0  0  0  0  0  0
    1.4570    0.7412    1.7903 H   0  0  0  0  0  0  0  0  0  0  0  0
    1.2666    2.0618   -0.7985 H   0  0  0  0  0  0  0  0  0  0  0  0
    2.8888    1.6718   -0.2489 H   0  0  0  0  0  0  0  0  0  0  0  0
    1.9145    1.4218   -2.9337 H   0  0  0  0  0  0  0  0  0  0  0  0
    3.4738    0.8659   -2.3161 H   0  0  0  0  0  0  0  0  0  0  0  0
    0.8331   -0.6087   -2.4873 H   0  0  0  0  0  0  0  0  0  0  0  0
    3.6090   -1.6844   -3.1002 H   0  0  0  0  0  0  0  0  0  0  0  0
    1.3625   -0.7745   -4.9469 H   0  0  0  0  0  0  0  0  0  0  0  0
    2.9641   -0.0551   -4.8011 H   0  0  0  0  0  0  0  0  0  0  0  0
    4.0426   -2.0768   -5.6778 H   0  0  0  0  0  0  0  0  0  0  0  0
    2.7757   -1.5530   -6.7838 H   0  0  0  0  0  0  0  0  0  0  0  0
    1.3697   -3.3845   -7.5398 H   0  0  0  0  0  0  0  0  0  0  0  0
   -0.1082   -5.0813   -4.3365 H   0  0  0  0  0  0  0  0  0  0  0  0
    0.4520   -6.6628   -4.9220 H   0  0  0  0  0  0  0  0  0  0  0  0
    2.7797   -6.0003   -4.7727 H   0  0  0  0  0  0  0  0  0  0  0  0
    2.0284   -5.8069   -3.2089 H   0  0  0  0  0  0  0  0  0  0  0  0
    3.5920   -3.9638   -4.0473 H   0  0  0  0  0  0  0  0  0  0  0  0
    0.7984   -2.8680   -3.4575 H   0  0  0  0  0  0  0  0  0  0  0  0
    1.2798   -4.4406   -1.6892 H   0  0  0  0  0  0  0  0  0  0  0  0
    2.9241   -3.8586   -1.5102 H   0  0  0  0  0  0  0  0  0  0  0  0
    0.3065   -2.4411   -0.8596 H   0  0  0  0  0  0  0  0  0  0  0  0
    1.5172   -2.9668    0.2976 H   0  0  0  0  0  0  0  0  0  0  0  0
    4.1164   -2.0624   -1.0343 H   0  0  0  0  0  0  0  0  0  0  0  0
    3.6436   -1.7523    0.6274 H   0  0  0  0  0  0  0  0  0  0  0  0
    4.1376   -0.4210   -0.4162 H   0  0  0  0  0  0  0  0  0  0  0  0
 23  1  1  0
  1  2  3  0
  3  2  1  1
  3  4  1  0
  4 24  1  0
  3  5  1  0
  5 25  1  0
  5 26  1  0
  5  6  1  0
  6 27  1  0
  6 28  1  0
  6  7  1  0
  7 29  1  6
  7  8  1  0
  8 30  1  1
  8  9  1  0
  9 31  1  0
  9 32  1  0
  9 10  1  0
 10 33  1  0
 10 34  1  0
 10 11  1  0
 11 12  2  0
 12 35  1  0
 12 13  1  0
 13 14  2  0
 13 15  1  0
 15 36  1  0
 15 37  1  0
 15 16  1  0
 16 38  1  0
 16 39  1  0
 11 17  1  0
 16 17  1  0
 17 40  1  1
  8 18  1  0
 17 18  1  0
 18 41  1  6
 18 19  1  0
 19 42  1  0
 19 43  1  0
 19 20  1  0
 20 44  1  0
 20 45  1  0
  7 21  1  0
  3 21  1  0
 20 21  1  0
 21 22  1  1
 22 46  1  0
 22 47  1  0
 22 48  1  0
M  END
>  <conformer_energy>  (1) 
64.38

>  <ligand_smiles>  (1) 
C#C[C@]1(O)CC[C@H]2[C@@H]3CCC4=CC(=O)CC[C@@H]4[C@H]3CC[C@@]21C

>  <ligand_conf_name>  (1) 
1SQN - prepared_ligand2_conf_0

>  <ligand_molecule_name>  (1) 
1SQN - prepared_ligand2

>  <fragInfo>  (1) 
1 2 3 4 5 6 7 8 9 10 11 12 13 14 15 16 17 18 19 20 21 22 23 24 25 26 27 28 29 30 31 32 33 34 35 36 37 38 39 40 41 42 43 44 45 46 47 48


>  <torsionInfo>  (1) 


>  <atomInfo>  (1) 
1  -0.117033 C 
2  -0.071155 C 
3  0.130335  C 
4  -0.377034 OA
5  -0.011790 C 
6  -0.045774 C 
7  -0.029007 C 
8  -0.034199 C 
9  -0.046103 C 
10 -0.031017 C 
11 -0.063281 C 
12 -0.019501 C 
13 0.155176  C 
14 -0.294866 OA
15 0.010763  C 
16 -0.039139 C 
17 -0.016338 C 
18 -0.031658 C 
19 -0.048927 C 
20 -0.043556 C 
21 0.010804  C 
22 -0.055625 C 
23 0.123938  H 
24 0.212213  HD
25 0.030673  H 
26 0.030673  H 
27 0.027113  H 
28 0.027113  H 
29 0.031271  H 
30 0.030893  H 
31 0.027284  H 
32 0.027284  H 
33 0.031284  H 
34 0.031284  H 
35 0.065983  H 
36 0.035037  H 
37 0.035037  H 
38 0.027732  H 
39 0.027732  H 
40 0.035199  H 
41 0.031178  H 
42 0.026991  H 
43 0.026991  H 
44 0.027377  H 
45 0.027377  H 
46 0.023756  H 
47 0.023756  H 
48 0.023756  H 


$$$$
