MOL_0_isomer_0_conf_0
     RDKit          3D

 17 18  0  0  0  0  0  0  0  0999 V2000
    3.5171    0.0058   -1.1835 C   0  0  0  0  0  0  0  0  0  0  0  0
    2.1184    0.0201   -1.1845 C   0  0  0  0  0  0  0  0  0  0  0  0
    1.3699    0.0042    0.0030 C   0  0  0  0  0  0  0  0  0  0  0  0
   -0.0119    0.0479   -0.0274 N   0  0  0  0  0  0  0  0  0  0  0  0
    2.1165    0.0097    1.1858 C   0  0  0  0  0  0  0  0  0  0  0  0
    3.5086   -0.0038    1.2211 C   0  0  0  0  0  0  0  0  0  0  0  0
    3.9719   -0.0053    2.5159 N   0  0  0  0  0  0  0  0  0  0  0  0
    2.8944    0.0144    3.2648 C   0  0  0  0  0  0  0  0  0  0  0  0
    1.7565    0.0262    2.5104 N   0  0  0  0  0  0  0  0  0  0  0  0
    4.2287   -0.0112    0.0193 C   0  0  0  0  0  0  0  0  0  0  0  0
    4.0578    0.0130   -2.1265 H   0  0  0  0  0  0  0  0  0  0  0  0
    1.6013    0.0462   -2.1415 H   0  0  0  0  0  0  0  0  0  0  0  0
   -0.5453    0.0650    0.8278 H   0  0  0  0  0  0  0  0  0  0  0  0
   -0.4855   -0.2961   -0.8537 H   0  0  0  0  0  0  0  0  0  0  0  0
    2.8750    0.0218    4.3463 H   0  0  0  0  0  0  0  0  0  0  0  0
    0.8119    0.0444    2.8615 H   0  0  0  0  0  0  0  0  0  0  0  0
    5.3126   -0.0203    0.0340 H   0  0  0  0  0  0  0  0  0  0  0  0
 11  1  1  0
  1  2  2  0
  2 12  1  0
  2  3  1  0
  3  4  1  0
  4 13  1  0
  4 14  1  0
  3  5  2  0
  5  6  1  0
  6  7  1  0
  7  8  2  0
  8 15  1  0
  5  9  1  0
  8  9  1  0
  9 16  1  0
  1 10  1  0
  6 10  2  0
 10 17  1  0
M  END
>  <conformer_energy>  (1) 
-3.48

>  <ligand_smiles>  (1) 
Nc1cccc2nc[nH]c12

>  <ligand_conf_name>  (1) 
MOL_0_isomer_0_conf_0

>  <ligand_molecule_name>  (1) 
MOL_0_isomer_0

$$$$
