MOL_0_isomer_0_conf_0
     RDKit          3D

 54 58  0  0  0  0  0  0  0  0999 V2000
   -1.7856   -4.2391   -2.3013 O   0  0  0  0  0  0  0  0  0  0  0  0
   -1.8978   -2.9469   -2.9315 C   0  0  1  0  0  0  0  0  0  0  0  0
   -0.6065   -2.5313   -3.6584 C   0  0  2  0  0  0  0  0  0  0  0  0
    0.3531   -1.8525   -2.8347 O   0  0  0  0  0  0  0  0  0  0  0  0
    0.0015   -0.4909   -2.5204 C   0  0  1  0  0  0  0  0  0  0  0  0
    0.7092   -0.0352   -1.2512 C   0  0  1  0  0  0  0  0  0  0  0  0
    0.6782   -1.0052   -0.2083 O   0  0  0  0  0  0  0  0  0  0  0  0
    2.0971    0.2684   -1.7851 C   0  0  2  0  0  0  0  0  0  0  0  0
    2.8554    1.2004   -0.9795 N   0  0  0  0  0  0  0  0  0  0  0  0
    2.6147    2.5452   -0.8385 C   0  0  0  0  0  0  0  0  0  0  0  0
    3.4891    3.1211   -0.0341 N   0  0  0  0  0  0  0  0  0  0  0  0
    4.3174    2.0970    0.3656 C   0  0  0  0  0  0  0  0  0  0  0  0
    5.4256    2.0692    1.2259 C   0  0  0  0  0  0  0  0  0  0  0  0
    5.8782    3.1883    1.8904 N   0  0  0  0  0  0  0  0  0  0  0  0
    6.0607    0.8931    1.4285 N   0  0  0  0  0  0  0  0  0  0  0  0
    5.5796   -0.2009    0.7984 C   0  0  0  0  0  0  0  0  0  0  0  0
    4.5319   -0.2999   -0.0360 N   0  0  0  0  0  0  0  0  0  0  0  0
    3.9396    0.8941   -0.2078 C   0  0  0  0  0  0  0  0  0  0  0  0
    1.9226    0.8413   -3.0974 O   0  0  0  0  0  0  0  0  0  0  0  0
    0.5981    0.4493   -3.5763 C   0  0  2  0  0  0  0  0  0  0  0  0
   -0.2405    1.7004   -3.8577 C   0  0  0  0  0  0  0  0  0  0  0  0
   -0.8904    2.1549   -2.6857 O   0  0  0  0  0  0  0  0  0  0  0  0
   -2.1245    3.1940   -2.8960 P   0  0  2  0  0  5  0  0  0  0  0  0
   -1.7460    4.0759   -4.0733 O   0  0  0  0  0  0  0  0  0  0  0  0
   -2.4183    3.8335   -1.5628 O   0  0  0  0  0  1  0  0  0  0  0  0
   -3.3109    2.2328   -3.3627 O   0  0  0  0  0  0  0  0  0  0  0  0
   -3.9095    0.8466   -2.8589 P   0  0  2  0  0  5  0  0  0  0  0  0
   -5.2558    0.5983   -3.5134 O   0  0  0  0  0  0  0  0  0  0  0  0
   -3.7357    0.5921   -1.3831 O   0  0  0  0  0  1  0  0  0  0  0  0
   -2.8744   -0.1714   -3.5772 O   0  0  0  0  0  0  0  0  0  0  0  0
   -3.0763   -0.5892   -4.9050 C   0  0  0  0  0  0  0  0  0  0  0  0
   -2.3899   -1.9446   -5.0708 C   0  0  1  0  0  0  0  0  0  0  0  0
   -0.9608   -1.8122   -4.8548 O   0  0  0  0  0  0  0  0  0  0  0  0
   -2.8967   -2.9958   -4.0776 C   0  0  1  0  0  0  0  0  0  0  0  0
   -2.8263   -4.3171   -4.6726 O   0  0  0  0  0  0  0  0  0  0  0  0
   -2.0510   -4.8674   -3.0106 H   0  0  0  0  0  0  0  0  0  0  0  0
   -2.1856   -2.2295   -2.1623 H   0  0  0  0  0  0  0  0  0  0  0  0
   -0.0882   -3.4392   -3.9941 H   0  0  0  0  0  0  0  0  0  0  0  0
   -1.0668   -0.4146   -2.3663 H   0  0  0  0  0  0  0  0  0  0  0  0
    0.2434    0.8760   -0.8661 H   0  0  0  0  0  0  0  0  0  0  0  0
   -0.2490   -1.0227    0.0981 H   0  0  0  0  0  0  0  0  0  0  0  0
    2.6917   -0.6459   -1.8951 H   0  0  0  0  0  0  0  0  0  0  0  0
    1.7920    3.0407   -1.3393 H   0  0  0  0  0  0  0  0  0  0  0  0
    5.3681    4.0534    1.7589 H   0  0  0  0  0  0  0  0  0  0  0  0
    6.6477    3.0881    2.5300 H   0  0  0  0  0  0  0  0  0  0  0  0
    6.1070   -1.1280    0.9930 H   0  0  0  0  0  0  0  0  0  0  0  0
    0.7933   -0.0579   -4.5270 H   0  0  0  0  0  0  0  0  0  0  0  0
   -0.9912    1.4686   -4.6168 H   0  0  0  0  0  0  0  0  0  0  0  0
    0.3983    2.5064   -4.2356 H   0  0  0  0  0  0  0  0  0  0  0  0
   -2.6390    0.1534   -5.5777 H   0  0  0  0  0  0  0  0  0  0  0  0
   -4.1393   -0.6985   -5.1385 H   0  0  0  0  0  0  0  0  0  0  0  0
   -2.5172   -2.2797   -6.1039 H   0  0  0  0  0  0  0  0  0  0  0  0
   -3.9327   -2.8487   -3.7554 H   0  0  0  0  0  0  0  0  0  0  0  0
   -3.4577   -4.3069   -5.4076 H   0  0  0  0  0  0  0  0  0  0  0  0
 36  1  1  0
  1  2  1  0
  2 37  1  1
  2  3  1  0
  3 38  1  6
  3  4  1  0
  4  5  1  0
  5 39  1  1
  5  6  1  0
  6 40  1  1
  6  7  1  0
  7 41  1  0
  6  8  1  0
  8 42  1  6
  8  9  1  0
  9 10  1  0
 10 43  1  0
 10 11  2  0
 11 12  1  0
 12 13  1  0
 13 14  1  0
 14 44  1  0
 14 45  1  0
 13 15  2  0
 15 16  1  0
 16 46  1  0
 16 17  2  0
 12 18  2  0
  9 18  1  0
 17 18  1  0
  8 19  1  0
  5 20  1  0
 19 20  1  0
 20 47  1  6
 20 21  1  0
 21 48  1  0
 21 49  1  0
 21 22  1  0
 22 23  1  0
 23 24  2  0
 23 25  1  1
 23 26  1  0
 26 27  1  0
 27 28  2  0
 27 29  1  1
 27 30  1  0
 30 31  1  0
 31 50  1  0
 31 51  1  0
 31 32  1  0
 32 52  1  6
  3 33  1  0
 32 33  1  0
  2 34  1  0
 32 34  1  0
 34 53  1  1
 34 35  1  0
 35 54  1  0
M  CHG  2  25  -1  29  -1
M  END
>  <conformer_energy>  (1) 
-14.05

>  <ligand_smiles>  (1) 
Nc1ncnc2c1ncn2[C@@H]1O[C@@H]2CO[P@](=O)([O-])O[P@](=O)([O-])OC[C@H]3O[C@@H](O[C@H]2[C@H]1O)[C@H](O)[C@@H]3O

>  <ligand_conf_name>  (1) 
MOL_0_isomer_0_conf_0

>  <ligand_molecule_name>  (1) 
MOL_0_isomer_0

$$$$
