MOL_0_isomer_0_conf_0
     RDKit          3D

 47 46  0  0  0  0  0  0  0  0999 V2000
   -0.5612    1.1617    0.4665 N   0  0  0  0  0  0  0  0  0  0  0  0
   -1.1701    2.3568    0.7213 C   0  0  0  0  0  0  0  0  0  0  0  0
   -0.6013    3.3681    1.1203 O   0  0  0  0  0  0  0  0  0  0  0  0
   -2.6726    2.3160    0.5213 C   0  0  0  0  0  0  0  0  0  0  0  0
   -3.3387    1.4555    1.6021 C   0  0  0  0  0  0  0  0  0  0  0  0
   -3.8953    0.1364    1.0449 C   0  0  0  0  0  0  0  0  0  0  0  0
   -4.2687   -0.8327    2.1665 C   0  0  1  0  0  0  0  0  0  0  0  0
   -5.5833   -1.6003    1.8216 C   0  0  0  0  0  0  0  0  0  0  0  0
   -6.6290   -0.9129    1.7071 O   0  0  0  0  0  0  0  0  0  0  0  0
   -5.4043   -2.8550    1.7448 O   0  0  0  0  0  1  0  0  0  0  0  0
   -3.1202   -1.7667    2.4192 N   0  0  0  0  0  4  0  0  0  0  0  0
    0.8372    0.8738    0.7741 C   0  0  2  0  0  0  0  0  0  0  0  0
    1.7362    1.3369   -0.4057 C   0  0  0  0  0  0  0  0  0  0  0  0
    1.3138    1.4683   -1.5569 O   0  0  0  0  0  0  0  0  0  0  0  0
    3.0586    1.5146   -0.0697 N   0  0  0  0  0  0  0  0  0  0  0  0
    4.1355    1.9197   -0.9995 C   0  0  1  0  0  0  0  0  0  0  0  0
    5.2957    2.6930   -0.2703 C   0  0  0  0  0  0  0  0  0  0  0  0
    6.1508    3.2490   -1.0188 O   0  0  0  0  0  0  0  0  0  0  0  0
    5.2399    2.6567    0.9991 O   0  0  0  0  0  1  0  0  0  0  0  0
    4.7750    0.7168   -1.7422 C   0  0  0  0  0  0  0  0  0  0  0  0
    5.2974   -0.3638   -0.7863 C   0  0  0  0  0  0  0  0  0  0  0  0
    3.8235    0.0778   -2.7572 C   0  0  0  0  0  0  0  0  0  0  0  0
    1.0331   -0.6534    1.0038 C   0  0  0  0  0  0  0  0  0  0  0  0
   -0.2442   -1.4057    2.1425 S   0  0  0  0  0  1  0  0  0  0  0  0
   -1.0835    0.3583    0.1503 H   0  0  0  0  0  0  0  0  0  0  0  0
   -3.0420    3.3449    0.5912 H   0  0  0  0  0  0  0  0  0  0  0  0
   -2.8978    1.9560   -0.4907 H   0  0  0  0  0  0  0  0  0  0  0  0
   -4.1799    2.0187    2.0290 H   0  0  0  0  0  0  0  0  0  0  0  0
   -2.6443    1.2606    2.4283 H   0  0  0  0  0  0  0  0  0  0  0  0
   -4.7685    0.3772    0.4192 H   0  0  0  0  0  0  0  0  0  0  0  0
   -3.1651   -0.3302    0.3719 H   0  0  0  0  0  0  0  0  0  0  0  0
   -4.4334   -0.3004    3.1123 H   0  0  0  0  0  0  0  0  0  0  0  0
   -2.1331   -1.4130    2.2794 H   0  0  0  0  0  0  0  0  0  0  0  0
   -3.1561   -2.1835    3.3541 H   0  0  0  0  0  0  0  0  0  0  0  0
   -3.2486   -2.5692    1.7766 H   0  0  0  0  0  0  0  0  0  0  0  0
    1.1141    1.4360    1.6758 H   0  0  0  0  0  0  0  0  0  0  0  0
    3.3445    1.5586    0.9076 H   0  0  0  0  0  0  0  0  0  0  0  0
    3.6962    2.6130   -1.7266 H   0  0  0  0  0  0  0  0  0  0  0  0
    5.6352    1.0844   -2.3189 H   0  0  0  0  0  0  0  0  0  0  0  0
    5.7847   -1.1707   -1.3464 H   0  0  0  0  0  0  0  0  0  0  0  0
    4.4869   -0.8064   -0.1999 H   0  0  0  0  0  0  0  0  0  0  0  0
    6.0408    0.0428   -0.0929 H   0  0  0  0  0  0  0  0  0  0  0  0
    3.0101   -0.4659   -2.2642 H   0  0  0  0  0  0  0  0  0  0  0  0
    3.3862    0.8293   -3.4242 H   0  0  0  0  0  0  0  0  0  0  0  0
    4.3644   -0.6418   -3.3828 H   0  0  0  0  0  0  0  0  0  0  0  0
    2.0504   -0.8161    1.3827 H   0  0  0  0  0  0  0  0  0  0  0  0
    1.0128   -1.1560    0.0287 H   0  0  0  0  0  0  0  0  0  0  0  0
 25  1  1  0
  1  2  1  0
  2  3  2  0
  2  4  1  0
  4 26  1  0
  4 27  1  0
  4  5  1  0
  5 28  1  0
  5 29  1  0
  5  6  1  0
  6 30  1  0
  6 31  1  0
  6  7  1  0
  7 32  1  1
  7  8  1  0
  8  9  2  0
  8 10  1  0
  7 11  1  0
 11 33  1  0
 11 34  1  0
 11 35  1  0
  1 12  1  0
 12 36  1  1
 12 13  1  0
 13 14  2  0
 13 15  1  0
 15 37  1  0
 15 16  1  0
 16 38  1  6
 16 17  1  0
 17 18  2  0
 17 19  1  0
 16 20  1  0
 20 39  1  0
 20 21  1  0
 21 40  1  0
 21 41  1  0
 21 42  1  0
 20 22  1  0
 22 43  1  0
 22 44  1  0
 22 45  1  0
 12 23  1  0
 23 46  1  0
 23 47  1  0
 23 24  1  0
M  CHG  4  10  -1  11   1  19  -1  24  -1
M  END
>  <conformer_energy>  (1) 
66.56

>  <ligand_smiles>  (1) 
CC(C)[C@@H](NC(=O)[C@H](C[S-])NC(=O)CCC[C@H]([NH3+])C(=O)[O-])C(=O)[O-]

>  <ligand_conf_name>  (1) 
MOL_0_isomer_0_conf_0

>  <ligand_molecule_name>  (1) 
MOL_0_isomer_0

$$$$
