MOL_0_isomer_0_conf_0
     RDKit          3D

 35 36  0  0  0  0  0  0  0  0999 V2000
   -3.2655    1.6209   -1.4412 O   0  0  0  0  0  0  0  0  0  0  0  0
   -2.4575    2.2252   -2.3233 C   0  0  0  0  0  0  0  0  0  0  0  0
   -2.9996    3.1933   -3.0656 N   0  0  0  0  0  0  0  0  0  0  0  0
   -1.9500    3.6755   -3.8386 O   0  0  0  0  0  0  0  0  0  0  0  0
   -0.8195    2.9788   -3.5501 C   0  0  0  0  0  0  0  0  0  0  0  0
   -1.0851    2.0269   -2.5993 C   0  0  0  0  0  0  0  0  0  0  0  0
   -0.2449    1.1042   -2.0786 N   0  0  0  0  0  0  0  0  0  0  0  0
    1.2030    1.2125   -2.0653 C   0  0  0  0  0  0  0  0  0  0  0  0
    1.8567   -0.1493   -2.1933 C   0  0  0  0  0  0  0  0  0  0  0  0
    2.3822   -0.5656   -3.4240 C   0  0  0  0  0  0  0  0  0  0  0  0
    2.2868    0.2715   -4.5035 O   0  0  0  0  0  0  0  0  0  0  0  0
    2.9995   -1.8164   -3.5348 C   0  0  0  0  0  0  0  0  0  0  0  0
    3.6062   -2.2777   -4.8263 C   0  0  0  0  0  0  0  0  0  0  0  0
    3.0949   -2.6753   -2.4941 N   0  0  0  0  0  0  0  0  0  0  0  0
    2.5533   -2.2785   -1.3194 C   0  0  0  0  0  0  0  0  0  0  0  0
    1.9332   -1.0494   -1.1051 C   0  0  0  0  0  0  0  0  0  0  0  0
    1.3540   -0.7526    0.2554 C   0  0  0  0  0  0  0  0  0  0  0  0
   -0.0197   -0.5235    0.0681 O   0  0  0  0  0  0  0  0  0  0  0  0
   -0.8104    0.2902    1.2057 P   0  0  1  0  0  5  0  0  0  0  0  0
   -2.1255    0.6811    0.5846 O   0  0  0  0  0  0  0  0  0  0  0  0
   -0.6562   -0.3481    2.5477 O   0  0  0  0  0  1  0  0  0  0  0  0
    0.0101    1.6738    1.1771 O   0  0  0  0  0  0  0  0  0  0  0  0
   -2.7453    1.1713   -0.7179 H   0  0  0  0  0  0  0  0  0  0  0  0
    0.0550    3.2649   -4.1115 H   0  0  0  0  0  0  0  0  0  0  0  0
   -0.6019    0.3938   -1.4285 H   0  0  0  0  0  0  0  0  0  0  0  0
    1.5273    1.6854   -1.1310 H   0  0  0  0  0  0  0  0  0  0  0  0
    1.5679    1.8785   -2.8551 H   0  0  0  0  0  0  0  0  0  0  0  0
    2.0108   -0.2716   -5.2615 H   0  0  0  0  0  0  0  0  0  0  0  0
    4.1239   -3.2336   -4.6946 H   0  0  0  0  0  0  0  0  0  0  0  0
    4.3374   -1.5476   -5.1872 H   0  0  0  0  0  0  0  0  0  0  0  0
    2.8280   -2.4167   -5.5829 H   0  0  0  0  0  0  0  0  0  0  0  0
    2.6290   -3.0132   -0.5208 H   0  0  0  0  0  0  0  0  0  0  0  0
    1.8665    0.1126    0.6881 H   0  0  0  0  0  0  0  0  0  0  0  0
    1.4789   -1.5978    0.9402 H   0  0  0  0  0  0  0  0  0  0  0  0
   -0.6339    2.3098    0.8146 H   0  0  0  0  0  0  0  0  0  0  0  0
 23  1  1  0
  1  2  1  0
  2  3  2  0
  3  4  1  0
  4  5  1  0
  5 24  1  0
  2  6  1  0
  5  6  2  0
  6  7  1  0
  7 25  1  0
  7  8  1  0
  8 26  1  0
  8 27  1  0
  8  9  1  0
  9 10  2  0
 10 11  1  0
 11 28  1  0
 10 12  1  0
 12 13  1  0
 13 29  1  0
 13 30  1  0
 13 31  1  0
 12 14  2  0
 14 15  1  0
 15 32  1  0
  9 16  1  0
 15 16  2  0
 16 17  1  0
 17 33  1  0
 17 34  1  0
 17 18  1  0
 18 19  1  0
 19 20  2  0
 19 21  1  1
 19 22  1  0
 22 35  1  0
M  CHG  1  21  -1
M  END
>  <conformer_energy>  (1) 
-164.36

>  <ligand_smiles>  (1) 
Cc1ncc(CO[P@@](=O)([O-])O)c(CNc2conc2O)c1O

>  <ligand_conf_name>  (1) 
MOL_0_isomer_0_conf_0

>  <ligand_molecule_name>  (1) 
MOL_0_isomer_0

$$$$
