MOL_0_isomer_0_chiral_N_isomer_0_conf_0
     RDKit          3D

 31 31  0  0  0  0  0  0  0  0999 V2000
   -0.2081    3.6128   -4.3519 C   0  0  0  0  0  0  0  0  0  0  0  0
    0.6671    2.6570   -3.8196 C   0  0  0  0  0  0  0  0  0  0  0  0
    2.0402    2.8765   -3.8284 C   0  0  0  0  0  0  0  0  0  0  0  0
    3.1918    1.7216   -3.1210 S   0  0  0  0  0  6  0  0  0  0  0  0
    4.2647    2.5162   -2.5457 O   0  0  0  0  0  0  0  0  0  0  0  0
    3.5133    0.7684   -4.1708 O   0  0  0  0  0  0  0  0  0  0  0  0
    2.4399    0.9104   -1.8617 N   0  0  0  0  0  0  0  0  0  0  0  0
    1.7575   -0.3664   -2.1985 C   0  0  0  0  0  0  0  0  0  0  0  0
    0.6626   -0.7072   -1.1880 C   0  0  0  0  0  0  0  0  0  0  0  0
   -0.5234   -0.0247   -1.5505 O   0  0  0  0  0  0  0  0  0  0  0  0
   -0.8363    1.3645   -0.7446 P   0  0  0  0  0  5  0  0  0  0  0  0
   -1.2247    0.8888    0.6413 O   0  0  0  0  0  0  0  0  0  0  0  0
   -1.9398    1.9921   -1.5755 O   0  0  0  0  0  1  0  0  0  0  0  0
    0.4957    2.1046   -0.8179 O   0  0  0  0  0  1  0  0  0  0  0  0
    2.5473    4.0487   -4.3990 C   0  0  0  0  0  0  0  0  0  0  0  0
    1.6741    4.9861   -4.9571 C   0  0  0  0  0  0  0  0  0  0  0  0
    0.2902    4.7759   -4.9355 C   0  0  0  0  0  0  0  0  0  0  0  0
   -0.4410    5.7789   -5.5033 O   0  0  0  0  0  0  0  0  0  0  0  0
   -1.8466    5.6097   -5.5626 C   0  0  0  0  0  0  0  0  0  0  0  0
   -2.4105    5.6106   -4.3418 F   0  0  0  0  0  0  0  0  0  0  0  0
   -2.1889    4.4988   -6.2498 F   0  0  0  0  0  0  0  0  0  0  0  0
   -2.3571    6.6688   -6.2454 F   0  0  0  0  0  0  0  0  0  0  0  0
   -1.2711    3.4057   -4.2349 H   0  0  0  0  0  0  0  0  0  0  0  0
    0.2328    1.7809   -3.3453 H   0  0  0  0  0  0  0  0  0  0  0  0
    1.7163    1.5436   -1.3879 H   0  0  0  0  0  0  0  0  0  0  0  0
    1.3202   -0.3169   -3.2012 H   0  0  0  0  0  0  0  0  0  0  0  0
    2.5206   -1.1523   -2.1864 H   0  0  0  0  0  0  0  0  0  0  0  0
    0.4396   -1.7773   -1.2475 H   0  0  0  0  0  0  0  0  0  0  0  0
    0.9634   -0.4881   -0.1577 H   0  0  0  0  0  0  0  0  0  0  0  0
    3.6174    4.2375   -4.3990 H   0  0  0  0  0  0  0  0  0  0  0  0
    2.0774    5.8959   -5.3921 H   0  0  0  0  0  0  0  0  0  0  0  0
 23  1  1  0
  1  2  2  0
  2 24  1  0
  2  3  1  0
  3  4  1  0
  4  5  2  0
  4  6  2  0
  4  7  1  0
  7 25  1  1
  7  8  1  0
  8 26  1  0
  8 27  1  0
  8  9  1  0
  9 28  1  0
  9 29  1  0
  9 10  1  0
 10 11  1  0
 11 12  2  0
 11 13  1  0
 11 14  1  0
  3 15  2  0
 15 30  1  0
 15 16  1  0
 16 31  1  0
  1 17  1  0
 16 17  2  0
 17 18  1  0
 18 19  1  0
 19 20  1  0
 19 21  1  0
 19 22  1  0
M  CHG  2  13  -1  14  -1
M  END
>  <conformer_energy>  (1) 
-119.53

>  <ligand_smiles>  (1) 
O=P([O-])([O-])OCCNS(=O)(=O)c1ccc(OC(F)(F)F)cc1

>  <ligand_conf_name>  (1) 
MOL_0_isomer_0_chiral_N_isomer_0_conf_0

>  <ligand_molecule_name>  (1) 
MOL_0_isomer_0_chiral_N_isomer_0

$$$$
MOL_0_isomer_0_chiral_N_isomer_1_conf_0
     RDKit          3D

 31 31  0  0  0  0  0  0  0  0999 V2000
   -0.3821   -3.6648   -3.8642 C   0  0  0  0  0  0  0  0  0  0  0  0
    0.4692   -2.6339   -3.4546 C   0  0  0  0  0  0  0  0  0  0  0  0
    1.8345   -2.7286   -3.6915 C   0  0  0  0  0  0  0  0  0  0  0  0
    2.9787   -1.4731   -3.1672 S   0  0  0  0  0  6  0  0  0  0  0  0
    3.0139   -0.4814   -4.2298 O   0  0  0  0  0  0  0  0  0  0  0  0
    4.2087   -2.1633   -2.8149 O   0  0  0  0  0  0  0  0  0  0  0  0
    2.3911   -0.7553   -1.7717 N   0  0  0  0  0  0  0  0  0  0  0  0
    1.5410    0.4515   -1.9442 C   0  0  0  0  0  0  0  0  0  0  0  0
    0.6216    0.6717   -0.7435 C   0  0  0  0  0  0  0  0  0  0  0  0
   -0.5395   -0.1225   -0.9024 O   0  0  0  0  0  0  0  0  0  0  0  0
   -0.5623   -1.5426   -0.0898 P   0  0  0  0  0  5  0  0  0  0  0  0
   -0.7065   -1.1181    1.3586 O   0  0  0  0  0  0  0  0  0  0  0  0
    0.7888   -2.1553   -0.4448 O   0  0  0  0  0  1  0  0  0  0  0  0
   -1.7506   -2.2611   -0.7006 O   0  0  0  0  0  1  0  0  0  0  0  0
    2.3436   -3.8495   -4.3599 C   0  0  0  0  0  0  0  0  0  0  0  0
    1.4853   -4.8700   -4.7882 C   0  0  0  0  0  0  0  0  0  0  0  0
    0.1139   -4.7844   -4.5374 C   0  0  0  0  0  0  0  0  0  0  0  0
   -0.8329   -5.7060   -4.8824 O   0  0  0  0  0  0  0  0  0  0  0  0
   -0.3973   -6.8885   -5.5152 C   0  0  0  0  0  0  0  0  0  0  0  0
    0.4625   -7.5929   -4.7472 F   0  0  0  0  0  0  0  0  0  0  0  0
    0.1869   -6.6249   -6.7080 F   0  0  0  0  0  0  0  0  0  0  0  0
   -1.4713   -7.6783   -5.7609 F   0  0  0  0  0  0  0  0  0  0  0  0
   -1.4361   -3.5887   -3.5969 H   0  0  0  0  0  0  0  0  0  0  0  0
    0.0386   -1.8075   -2.8958 H   0  0  0  0  0  0  0  0  0  0  0  0
    1.8263   -1.4636   -1.1982 H   0  0  0  0  0  0  0  0  0  0  0  0
    2.2156    1.3084   -2.0472 H   0  0  0  0  0  0  0  0  0  0  0  0
    0.9353    0.3700   -2.8526 H   0  0  0  0  0  0  0  0  0  0  0  0
    1.1265    0.4744    0.2085 H   0  0  0  0  0  0  0  0  0  0  0  0
    0.2891    1.7147   -0.7323 H   0  0  0  0  0  0  0  0  0  0  0  0
    3.4129   -3.9351   -4.5370 H   0  0  0  0  0  0  0  0  0  0  0  0
    1.9318   -5.7191   -5.2938 H   0  0  0  0  0  0  0  0  0  0  0  0
 23  1  1  0
  1  2  2  0
  2 24  1  0
  2  3  1  0
  3  4  1  0
  4  5  2  0
  4  6  2  0
  4  7  1  0
  7 25  1  1
  7  8  1  0
  8 26  1  0
  8 27  1  0
  8  9  1  0
  9 28  1  0
  9 29  1  0
  9 10  1  0
 10 11  1  0
 11 12  2  0
 11 13  1  0
 11 14  1  0
  3 15  2  0
 15 30  1  0
 15 16  1  0
 16 31  1  0
  1 17  1  0
 16 17  2  0
 17 18  1  0
 18 19  1  0
 19 20  1  0
 19 21  1  0
 19 22  1  0
M  CHG  2  13  -1  14  -1
M  END
>  <conformer_energy>  (2) 
-119.01

>  <ligand_smiles>  (2) 
O=P([O-])([O-])OCCNS(=O)(=O)c1ccc(OC(F)(F)F)cc1

>  <ligand_conf_name>  (2) 
MOL_0_isomer_0_chiral_N_isomer_1_conf_0

>  <ligand_molecule_name>  (2) 
MOL_0_isomer_0_chiral_N_isomer_1

$$$$
