MOL_0_isomer_0_conf_0
     RDKit          3D

 53 54  0  0  0  0  0  0  0  0999 V2000
    1.5653    0.1228   -1.0401 C   0  0  0  0  0  0  0  0  0  0  0  0
    2.7274   -0.4951   -1.5028 C   0  0  0  0  0  0  0  0  0  0  0  0
    2.9393   -1.8457   -1.2491 C   0  0  0  0  0  0  0  0  0  0  0  0
    4.1291   -2.3789   -1.6799 O   0  0  0  0  0  0  0  0  0  0  0  0
    4.7388   -3.1993   -0.6726 C   0  0  0  0  0  0  0  0  0  0  0  0
    6.0572   -3.7696   -1.1937 C   0  0  0  0  0  0  0  0  0  0  0  0
    6.7853   -4.6034   -0.1342 C   0  0  0  0  0  0  0  0  0  0  0  0
    6.2490   -5.9385   -0.0071 O   0  0  0  0  0  0  0  0  0  0  0  0
    5.4179   -6.0691    1.0739 C   0  0  0  0  0  0  0  0  0  0  0  0
    5.8636   -6.0110    2.3951 C   0  0  0  0  0  0  0  0  0  0  0  0
    7.2026   -6.0295    2.7061 N   0  0  0  0  0  0  0  0  0  0  0  0
    5.0205   -6.0520    3.4373 N   0  0  0  0  0  0  0  0  0  0  0  0
    3.6993   -6.1111    3.1546 C   0  0  0  0  0  0  0  0  0  0  0  0
    2.8197   -6.0575    4.2024 N   0  0  0  0  0  0  0  0  0  0  0  0
    3.2322   -6.2311    1.9131 N   0  0  0  0  0  4  0  0  0  0  0  0
    4.0582   -6.3057    0.8601 C   0  0  0  0  0  0  0  0  0  0  0  0
    3.4816   -6.6847   -0.4748 C   0  0  0  0  0  0  0  0  0  0  0  0
    3.7163   -8.1641   -0.7614 C   0  0  0  0  0  0  0  0  0  0  0  0
    1.9449   -2.5957   -0.6109 C   0  0  0  0  0  0  0  0  0  0  0  0
    0.7852   -1.9843   -0.1237 C   0  0  0  0  0  0  0  0  0  0  0  0
   -0.2487   -2.7935    0.6282 C   0  0  0  0  0  0  0  0  0  0  0  0
    0.0809   -3.1993    2.0728 C   0  0  1  0  0  0  0  0  0  0  0  0
    0.6071   -4.5980    2.2531 C   0  0  0  0  0  0  0  0  0  0  0  0
    1.1981   -5.1724    1.2902 O   0  0  0  0  0  0  0  0  0  0  0  0
    0.4880   -5.1418    3.3857 O   0  0  0  0  0  1  0  0  0  0  0  0
    1.1301   -2.3582    2.7687 C   0  0  0  0  0  0  0  0  0  0  0  0
    2.3906   -2.6509    2.3447 F   0  0  0  0  0  0  0  0  0  0  0  0
    1.1290   -2.5601    4.1123 F   0  0  0  0  0  0  0  0  0  0  0  0
    0.6077   -0.6120   -0.3416 C   0  0  0  0  0  0  0  0  0  0  0  0
    1.4053    1.1794   -1.2250 H   0  0  0  0  0  0  0  0  0  0  0  0
    3.4665    0.0805   -2.0493 H   0  0  0  0  0  0  0  0  0  0  0  0
    4.0790   -4.0330   -0.4274 H   0  0  0  0  0  0  0  0  0  0  0  0
    4.9174   -2.6098    0.2376 H   0  0  0  0  0  0  0  0  0  0  0  0
    6.6984   -2.9352   -1.4924 H   0  0  0  0  0  0  0  0  0  0  0  0
    5.8683   -4.3618   -2.0950 H   0  0  0  0  0  0  0  0  0  0  0  0
    6.8063   -4.0645    0.8172 H   0  0  0  0  0  0  0  0  0  0  0  0
    7.8259   -4.7233   -0.4467 H   0  0  0  0  0  0  0  0  0  0  0  0
    7.4097   -6.0097    3.6962 H   0  0  0  0  0  0  0  0  0  0  0  0
    7.8745   -5.6344    2.0681 H   0  0  0  0  0  0  0  0  0  0  0  0
    1.8312   -5.8043    4.0311 H   0  0  0  0  0  0  0  0  0  0  0  0
    3.2019   -5.8233    5.1051 H   0  0  0  0  0  0  0  0  0  0  0  0
    2.2112   -6.1611    1.7562 H   0  0  0  0  0  0  0  0  0  0  0  0
    3.9242   -6.0860   -1.2742 H   0  0  0  0  0  0  0  0  0  0  0  0
    2.4023   -6.4907   -0.4982 H   0  0  0  0  0  0  0  0  0  0  0  0
    3.2823   -8.7944    0.0256 H   0  0  0  0  0  0  0  0  0  0  0  0
    4.7887   -8.3892   -0.8192 H   0  0  0  0  0  0  0  0  0  0  0  0
    3.2558   -8.4416   -1.7162 H   0  0  0  0  0  0  0  0  0  0  0  0
    2.0488   -3.6686   -0.4847 H   0  0  0  0  0  0  0  0  0  0  0  0
   -0.5111   -3.6753    0.0264 H   0  0  0  0  0  0  0  0  0  0  0  0
   -1.1730   -2.1966    0.6522 H   0  0  0  0  0  0  0  0  0  0  0  0
   -0.8497   -3.1398    2.6515 H   0  0  0  0  0  0  0  0  0  0  0  0
    0.9631   -1.2865    2.6200 H   0  0  0  0  0  0  0  0  0  0  0  0
   -0.2878   -0.1083    0.0211 H   0  0  0  0  0  0  0  0  0  0  0  0
 30  1  1  0
  1  2  2  0
  2 31  1  0
  2  3  1  0
  3  4  1  0
  4  5  1  0
  5 32  1  0
  5 33  1  0
  5  6  1  0
  6 34  1  0
  6 35  1  0
  6  7  1  0
  7 36  1  0
  7 37  1  0
  7  8  1  0
  8  9  1  0
  9 10  2  0
 10 11  1  0
 11 38  1  0
 11 39  1  0
 10 12  1  0
 12 13  2  0
 13 14  1  0
 14 40  1  0
 14 41  1  0
 13 15  1  0
 15 42  1  0
  9 16  1  0
 15 16  2  0
 16 17  1  0
 17 43  1  0
 17 44  1  0
 17 18  1  0
 18 45  1  0
 18 46  1  0
 18 47  1  0
  3 19  2  0
 19 48  1  0
 19 20  1  0
 20 21  1  0
 21 49  1  0
 21 50  1  0
 21 22  1  0
 22 51  1  1
 22 23  1  0
 23 24  2  0
 23 25  1  0
 22 26  1  0
 26 52  1  0
 26 27  1  0
 26 28  1  0
  1 29  1  0
 20 29  2  0
 29 53  1  0
M  CHG  2  15   1  25  -1
M  END
>  <conformer_energy>  (1) 
-182.77

>  <ligand_smiles>  (1) 
CCc1[nH+]c(N)nc(N)c1OCCCOc1cccc(C[C@@H](C(=O)[O-])C(F)F)c1

>  <ligand_conf_name>  (1) 
MOL_0_isomer_0_conf_0

>  <ligand_molecule_name>  (1) 
MOL_0_isomer_0

$$$$
