MOL_0_isomer_0_conf_0
     RDKit          3D

 49 52  0  0  0  0  0  0  0  0999 V2000
    3.8166    1.3255    1.2897 O   0  0  0  0  0  0  0  0  0  0  0  0
    2.4311    1.4378    1.5501 C   0  0  1  0  0  0  0  0  0  0  0  0
    1.9541    2.8916    1.3681 C   0  0  0  0  0  0  0  0  0  0  0  0
    0.5388    2.8091    0.7684 C   0  0  0  0  0  0  0  0  0  0  0  0
    0.1959    1.3234    0.8346 C   0  0  1  0  0  0  0  0  0  0  0  0
   -0.9236    0.7747   -0.0547 C   0  0  2  0  0  0  0  0  0  0  0  0
   -2.2422    1.5446    0.1494 C   0  0  0  0  0  0  0  0  0  0  0  0
   -3.4103    0.9210   -0.6174 C   0  0  0  0  0  0  0  0  0  0  0  0
   -3.5069   -0.5418   -0.2608 C   0  0  0  0  0  0  0  0  0  0  0  0
   -4.5695   -0.9951    0.4281 C   0  0  0  0  0  0  0  0  0  0  0  0
   -4.5634   -2.3402    1.0497 C   0  0  0  0  0  0  0  0  0  0  0  0
   -5.5759   -2.7580    1.6047 O   0  0  0  0  0  0  0  0  0  0  0  0
   -3.2593   -3.0954    1.0645 C   0  0  0  0  0  0  0  0  0  0  0  0
   -2.5370   -2.8819   -0.2543 C   0  0  0  0  0  0  0  0  0  0  0  0
   -2.2675   -1.3857   -0.5882 C   0  0  1  0  0  0  0  0  0  0  0  0
   -1.9723   -1.3516   -2.1093 C   0  0  0  0  0  0  0  0  0  0  0  0
   -1.0941   -0.7587    0.2483 C   0  0  1  0  0  0  0  0  0  0  0  0
    0.2547   -1.5166    0.1356 C   0  0  0  0  0  0  0  0  0  0  0  0
    1.3978   -0.8555    0.9290 C   0  0  0  0  0  0  0  0  0  0  0  0
    1.5486    0.6301    0.5778 C   0  0  2  0  0  0  0  0  0  0  0  0
    2.0822    0.7652   -0.8712 C   0  0  0  0  0  0  0  0  0  0  0  0
    4.0581    0.3890    1.3891 H   0  0  0  0  0  0  0  0  0  0  0  0
    2.2557    1.1302    2.5887 H   0  0  0  0  0  0  0  0  0  0  0  0
    1.9372    3.4049    2.3361 H   0  0  0  0  0  0  0  0  0  0  0  0
    2.6204    3.4667    0.7153 H   0  0  0  0  0  0  0  0  0  0  0  0
   -0.1705    3.4196    1.3364 H   0  0  0  0  0  0  0  0  0  0  0  0
    0.5396    3.1759   -0.2641 H   0  0  0  0  0  0  0  0  0  0  0  0
   -0.1038    1.1277    1.8779 H   0  0  0  0  0  0  0  0  0  0  0  0
   -0.6358    0.9103   -1.1023 H   0  0  0  0  0  0  0  0  0  0  0  0
   -2.1227    2.5852   -0.1744 H   0  0  0  0  0  0  0  0  0  0  0  0
   -2.4877    1.5748    1.2195 H   0  0  0  0  0  0  0  0  0  0  0  0
   -3.2768    1.0461   -1.6971 H   0  0  0  0  0  0  0  0  0  0  0  0
   -4.3311    1.4585   -0.3600 H   0  0  0  0  0  0  0  0  0  0  0  0
   -5.4304   -0.3790    0.6631 H   0  0  0  0  0  0  0  0  0  0  0  0
   -3.4761   -4.1618    1.1907 H   0  0  0  0  0  0  0  0  0  0  0  0
   -2.6619   -2.7623    1.9186 H   0  0  0  0  0  0  0  0  0  0  0  0
   -1.6132   -3.4687   -0.2698 H   0  0  0  0  0  0  0  0  0  0  0  0
   -3.1678   -3.3164   -1.0445 H   0  0  0  0  0  0  0  0  0  0  0  0
   -1.1669   -2.0463   -2.3726 H   0  0  0  0  0  0  0  0  0  0  0  0
   -2.8569   -1.6494   -2.6859 H   0  0  0  0  0  0  0  0  0  0  0  0
   -1.6775   -0.3646   -2.4741 H   0  0  0  0  0  0  0  0  0  0  0  0
   -1.3823   -0.8319    1.3090 H   0  0  0  0  0  0  0  0  0  0  0  0
    0.1433   -2.5365    0.5188 H   0  0  0  0  0  0  0  0  0  0  0  0
    0.5504   -1.6116   -0.9139 H   0  0  0  0  0  0  0  0  0  0  0  0
    2.3343   -1.3947    0.7424 H   0  0  0  0  0  0  0  0  0  0  0  0
    1.1866   -0.9677    2.0005 H   0  0  0  0  0  0  0  0  0  0  0  0
    2.2478    1.8078   -1.1604 H   0  0  0  0  0  0  0  0  0  0  0  0
    3.0417    0.2460   -0.9784 H   0  0  0  0  0  0  0  0  0  0  0  0
    1.4057    0.3338   -1.6137 H   0  0  0  0  0  0  0  0  0  0  0  0
 22  1  1  0
  1  2  1  0
  2 23  1  1
  2  3  1  0
  3 24  1  0
  3 25  1  0
  3  4  1  0
  4 26  1  0
  4 27  1  0
  4  5  1  0
  5 28  1  1
  5  6  1  0
  6 29  1  6
  6  7  1  0
  7 30  1  0
  7 31  1  0
  7  8  1  0
  8 32  1  0
  8 33  1  0
  8  9  1  0
  9 10  2  0
 10 34  1  0
 10 11  1  0
 11 12  2  0
 11 13  1  0
 13 35  1  0
 13 36  1  0
 13 14  1  0
 14 37  1  0
 14 38  1  0
  9 15  1  0
 14 15  1  0
 15 16  1  6
 16 39  1  0
 16 40  1  0
 16 41  1  0
  6 17  1  0
 15 17  1  0
 17 42  1  1
 17 18  1  0
 18 43  1  0
 18 44  1  0
 18 19  1  0
 19 45  1  0
 19 46  1  0
  5 20  1  0
  2 20  1  0
 19 20  1  0
 20 21  1  6
 21 47  1  0
 21 48  1  0
 21 49  1  0
M  END
>  <conformer_energy>  (1) 
74.17

>  <ligand_smiles>  (1) 
C[C@]12CC[C@H]3[C@@H](CCC4=CC(=O)CC[C@@]43C)[C@@H]1CC[C@@H]2O

>  <ligand_conf_name>  (1) 
MOL_0_isomer_0_conf_0

>  <ligand_molecule_name>  (1) 
MOL_0_isomer_0

$$$$
