MOL_0_isomer_0_conf_0
     RDKit          3D

 46 48  0  0  0  0  0  0  0  0999 V2000
    3.3252    1.2901    0.8808 C   0  0  0  0  0  0  0  0  0  0  0  0
    4.0329    0.7857   -0.1395 N   0  0  0  0  0  0  0  0  0  0  0  0
    3.3372    0.1367   -1.0791 C   0  0  0  0  0  0  0  0  0  0  0  0
    3.9791   -0.4011   -2.1613 N   0  0  0  0  0  0  0  0  0  0  0  0
    5.4188   -0.4850   -2.2141 C   0  0  0  0  0  0  0  0  0  0  0  0
    5.8973   -0.9323   -3.6022 C   0  0  0  0  0  0  0  0  0  0  0  0
    5.4893   -2.3412   -3.9686 C   0  0  0  0  0  0  0  0  0  0  0  0
    4.5066   -2.5654   -4.9429 C   0  0  0  0  0  0  0  0  0  0  0  0
    4.1238   -3.8655   -5.2761 C   0  0  0  0  0  0  0  0  0  0  0  0
    4.7193   -4.9533   -4.6407 C   0  0  0  0  0  0  0  0  0  0  0  0
    5.6986   -4.7422   -3.6722 C   0  0  0  0  0  0  0  0  0  0  0  0
    6.0830   -3.4428   -3.3373 C   0  0  0  0  0  0  0  0  0  0  0  0
    2.0100   -0.0402   -1.0410 N   0  0  0  0  0  0  0  0  0  0  0  0
    1.3163    0.4522    0.0032 C   0  0  0  0  0  0  0  0  0  0  0  0
   -0.0720    0.2735    0.0445 N   0  0  0  0  0  0  0  0  0  0  0  0
   -0.6370   -0.2751    1.2790 C   0  0  0  0  0  0  0  0  0  0  0  0
   -2.1493   -0.0561    1.3175 C   0  0  0  0  0  0  0  0  0  0  0  0
   -2.8285   -0.6001    0.0559 C   0  0  0  0  0  0  0  0  0  0  0  0
   -4.3316   -0.3350    0.0898 C   0  0  0  0  0  0  0  0  0  0  0  0
   -2.1896    0.0355   -1.1834 C   0  0  0  0  0  0  0  0  0  0  0  0
   -0.6772   -0.1858   -1.2096 C   0  0  0  0  0  0  0  0  0  0  0  0
    1.9643    1.1527    1.0009 C   0  0  0  0  0  0  0  0  0  0  0  0
    3.9015    1.8331    1.6230 H   0  0  0  0  0  0  0  0  0  0  0  0
    3.3943   -0.9911   -2.7338 H   0  0  0  0  0  0  0  0  0  0  0  0
    5.7826   -1.1742   -1.4426 H   0  0  0  0  0  0  0  0  0  0  0  0
    5.8602    0.4995   -2.0147 H   0  0  0  0  0  0  0  0  0  0  0  0
    6.9924   -0.8718   -3.6431 H   0  0  0  0  0  0  0  0  0  0  0  0
    5.5279   -0.2304   -4.3611 H   0  0  0  0  0  0  0  0  0  0  0  0
    4.0308   -1.7275   -5.4481 H   0  0  0  0  0  0  0  0  0  0  0  0
    3.3601   -4.0292   -6.0319 H   0  0  0  0  0  0  0  0  0  0  0  0
    4.4203   -5.9652   -4.9002 H   0  0  0  0  0  0  0  0  0  0  0  0
    6.1633   -5.5902   -3.1761 H   0  0  0  0  0  0  0  0  0  0  0  0
    6.8490   -3.2963   -2.5793 H   0  0  0  0  0  0  0  0  0  0  0  0
   -0.4140   -1.3482    1.3390 H   0  0  0  0  0  0  0  0  0  0  0  0
   -0.2144    0.1928    2.1745 H   0  0  0  0  0  0  0  0  0  0  0  0
   -2.5638   -0.5428    2.2082 H   0  0  0  0  0  0  0  0  0  0  0  0
   -2.3553    1.0181    1.4146 H   0  0  0  0  0  0  0  0  0  0  0  0
   -2.6748   -1.6865    0.0136 H   0  0  0  0  0  0  0  0  0  0  0  0
   -4.5473    0.7380    0.1326 H   0  0  0  0  0  0  0  0  0  0  0  0
   -4.7889   -0.8073    0.9656 H   0  0  0  0  0  0  0  0  0  0  0  0
   -4.8174   -0.7425   -0.8030 H   0  0  0  0  0  0  0  0  0  0  0  0
   -2.3962    1.1139   -1.1935 H   0  0  0  0  0  0  0  0  0  0  0  0
   -2.6335   -0.3832   -2.0943 H   0  0  0  0  0  0  0  0  0  0  0  0
   -0.2789    0.3711   -2.0676 H   0  0  0  0  0  0  0  0  0  0  0  0
   -0.4598   -1.2502   -1.3662 H   0  0  0  0  0  0  0  0  0  0  0  0
    1.4372    1.6062    1.8274 H   0  0  0  0  0  0  0  0  0  0  0  0
 23  1  1  0
  1  2  2  0
  2  3  1  0
  3  4  1  0
  4 24  1  0
  4  5  1  0
  5 25  1  0
  5 26  1  0
  5  6  1  0
  6 27  1  0
  6 28  1  0
  6  7  1  0
  7  8  2  0
  8 29  1  0
  8  9  1  0
  9 30  1  0
  9 10  2  0
 10 31  1  0
 10 11  1  0
 11 32  1  0
  7 12  1  0
 11 12  2  0
 12 33  1  0
  3 13  2  0
 13 14  1  0
 14 15  1  0
 15 16  1  0
 16 34  1  0
 16 35  1  0
 16 17  1  0
 17 36  1  0
 17 37  1  0
 17 18  1  0
 18 38  1  0
 18 19  1  0
 19 39  1  0
 19 40  1  0
 19 41  1  0
 18 20  1  0
 20 42  1  0
 20 43  1  0
 15 21  1  0
 20 21  1  0
 21 44  1  0
 21 45  1  0
  1 22  1  0
 14 22  2  0
 22 46  1  0
M  END
>  <conformer_energy>  (1) 
-79.48

>  <ligand_smiles>  (1) 
CC1CCN(c2ccnc(NCCc3ccccc3)n2)CC1

>  <ligand_conf_name>  (1) 
MOL_0_isomer_0_conf_0

>  <ligand_molecule_name>  (1) 
MOL_0_isomer_0

$$$$
