1U1C - prepared_ligand6_conf_0
     RDKit          3D

 36 37  0  0  0  0  0  0  0  0999 V2000
   -1.1044   -0.2824    2.4712 O   0  0  0  0  0  0  0  0  0  0  0  0
   -1.1513   -0.2662    1.0461 C   0  0  0  0  0  0  0  0  0  0  0  0
   -0.0084    0.5855    0.4967 C   0  0  0  0  0  0  0  0  0  0  0  0
    1.2567    0.1031    0.9675 O   0  0  0  0  0  0  0  0  0  0  0  0
    1.7335   -1.0161    0.2191 C   0  0  0  0  0  0  0  0  0  0  0  0
    3.0871   -1.3413    0.6418 N   0  0  0  0  0  0  0  0  0  0  0  0
    3.4169   -1.3454    1.9829 C   0  0  0  0  0  0  0  0  0  0  0  0
    4.6364   -1.6759    2.4287 C   0  0  0  0  0  0  0  0  0  0  0  0
    5.0293   -1.6716    3.8774 C   0  0  0  0  0  0  0  0  0  0  0  0
    4.8479   -3.0190    4.5385 C   0  0  0  0  0  0  0  0  0  0  0  0
    5.8705   -3.9771    4.4924 C   0  0  0  0  0  0  0  0  0  0  0  0
    5.6957   -5.2290    5.0840 C   0  0  0  0  0  0  0  0  0  0  0  0
    4.4974   -5.5374    5.7245 C   0  0  0  0  0  0  0  0  0  0  0  0
    3.4718   -4.5953    5.7729 C   0  0  0  0  0  0  0  0  0  0  0  0
    3.6439   -3.3427    5.1812 C   0  0  0  0  0  0  0  0  0  0  0  0
    5.6677   -2.0184    1.4218 C   0  0  0  0  0  0  0  0  0  0  0  0
    6.8289   -2.2664    1.7286 O   0  0  0  0  0  0  0  0  0  0  0  0
    5.2509   -2.0333    0.1216 N   0  0  0  0  0  0  0  0  0  0  0  0
    3.9972   -1.7217   -0.3317 C   0  0  0  0  0  0  0  0  0  0  0  0
    3.7387   -1.7947   -1.5312 O   0  0  0  0  0  0  0  0  0  0  0  0
   -0.1599   -0.2845    2.7158 H   0  0  0  0  0  0  0  0  0  0  0  0
   -2.1192    0.1385    0.7373 H   0  0  0  0  0  0  0  0  0  0  0  0
   -1.0813   -1.3016    0.7022 H   0  0  0  0  0  0  0  0  0  0  0  0
   -0.1064    1.6056    0.8830 H   0  0  0  0  0  0  0  0  0  0  0  0
   -0.0287    0.6346   -0.5973 H   0  0  0  0  0  0  0  0  0  0  0  0
    1.1088   -1.8952    0.4105 H   0  0  0  0  0  0  0  0  0  0  0  0
    1.7084   -0.7846   -0.8510 H   0  0  0  0  0  0  0  0  0  0  0  0
    2.6276   -1.0675    2.6762 H   0  0  0  0  0  0  0  0  0  0  0  0
    6.0666   -1.3347    4.0009 H   0  0  0  0  0  0  0  0  0  0  0  0
    4.4349   -0.9261    4.4234 H   0  0  0  0  0  0  0  0  0  0  0  0
    6.8110   -3.7535    3.9909 H   0  0  0  0  0  0  0  0  0  0  0  0
    6.4959   -5.9634    5.0425 H   0  0  0  0  0  0  0  0  0  0  0  0
    4.3631   -6.5126    6.1849 H   0  0  0  0  0  0  0  0  0  0  0  0
    2.5369   -4.8369    6.2720 H   0  0  0  0  0  0  0  0  0  0  0  0
    2.8320   -2.6209    5.2286 H   0  0  0  0  0  0  0  0  0  0  0  0
    5.9333   -2.2883   -0.5744 H   0  0  0  0  0  0  0  0  0  0  0  0
 21  1  1  0
  1  2  1  0
  2 22  1  0
  2 23  1  0
  2  3  1  0
  3 24  1  0
  3 25  1  0
  3  4  1  0
  4  5  1  0
  5 26  1  0
  5 27  1  0
  5  6  1  0
  6  7  1  0
  7 28  1  0
  7  8  2  0
  8  9  1  0
  9 29  1  0
  9 30  1  0
  9 10  1  0
 10 11  2  0
 11 31  1  0
 11 12  1  0
 12 32  1  0
 12 13  2  0
 13 33  1  0
 13 14  1  0
 14 34  1  0
 10 15  1  0
 14 15  2  0
 15 35  1  0
  8 16  1  0
 16 17  2  0
 16 18  1  0
 18 36  1  0
  6 19  1  0
 18 19  1  0
 19 20  2  0
M  END
>  <conformer_energy>  (1) 
-62.62

>  <ligand_smiles>  (1) 
O=c1[nH]c(=O)n(COCCO)cc1Cc1ccccc1

>  <ligand_conf_name>  (1) 
1U1C - prepared_ligand6_conf_0

>  <ligand_molecule_name>  (1) 
1U1C - prepared_ligand6

$$$$
