MOL_0_isomer_0_conf_0
     RDKit          3D

 72 76  0  0  0  0  0  0  0  0999 V2000
   -3.5596   -2.9253   -8.0283 O   0  0  0  0  0  0  0  0  0  0  0  0
   -2.1611   -3.1523   -7.9090 C   0  0  1  0  0  0  0  0  0  0  0  0
   -1.6718   -4.1600   -8.9402 C   0  0  1  0  0  0  0  0  0  0  0  0
   -2.2994   -3.8744  -10.2128 O   0  0  0  0  0  0  0  0  0  0  0  0
   -0.1703   -3.8713   -8.9719 C   0  0  2  0  0  0  0  0  0  0  0  0
    0.5978   -4.6821   -8.0475 N   0  0  0  0  0  0  0  0  0  0  0  0
    1.0590   -4.3397   -6.8051 C   0  0  0  0  0  0  0  0  0  0  0  0
    1.7463   -5.3185   -6.2428 N   0  0  0  0  0  0  0  0  0  0  0  0
    1.6938   -6.3521   -7.1568 C   0  0  0  0  0  0  0  0  0  0  0  0
    2.2038   -7.6619   -7.1405 C   0  0  0  0  0  0  0  0  0  0  0  0
    2.9202   -8.1766   -6.0841 N   0  0  0  0  0  0  0  0  0  0  0  0
    1.9761   -8.4576   -8.2127 N   0  0  0  0  0  0  0  0  0  0  0  0
    1.2726   -7.9495   -9.2473 C   0  0  0  0  0  0  0  0  0  0  0  0
    0.7332   -6.7193   -9.3747 N   0  0  0  0  0  0  0  0  0  0  0  0
    0.9880   -5.9733   -8.2865 C   0  0  0  0  0  0  0  0  0  0  0  0
   -0.0123   -2.4740   -8.6470 O   0  0  0  0  0  0  0  0  0  0  0  0
   -1.3032   -1.9357   -8.2478 C   0  0  2  0  0  0  0  0  0  0  0  0
   -1.1488   -0.9642   -7.0841 C   0  0  0  0  0  0  0  0  0  0  0  0
   -0.6869    0.2764   -7.5927 O   0  0  0  0  0  0  0  0  0  0  0  0
    0.1037    1.2442   -6.5471 P   0  0  1  0  0  5  0  0  0  0  0  0
    0.1124    2.6186   -7.1641 O   0  0  0  0  0  0  0  0  0  0  0  0
   -0.4955    1.0067   -5.1802 O   0  0  0  0  0  1  0  0  0  0  0  0
    1.5593    0.5774   -6.6718 O   0  0  0  0  0  0  0  0  0  0  0  0
    2.4147    0.0000   -5.4607 P   0  0  1  0  0  5  0  0  0  0  0  0
    3.0015    1.0800   -4.5815 O   0  0  0  0  0  0  0  0  0  0  0  0
    1.7348   -1.1927   -4.8241 O   0  0  0  0  0  1  0  0  0  0  0  0
    3.6958   -0.6102   -6.2609 O   0  0  0  0  0  0  0  0  0  0  0  0
    3.9792   -1.9925   -6.1695 C   0  0  0  0  0  0  0  0  0  0  0  0
    4.4611   -2.4920   -4.7891 C   0  0  1  0  0  0  0  0  0  0  0  0
    4.9059   -1.4110   -3.7864 C   0  0  0  0  0  0  0  0  0  0  0  0
    4.1319   -1.6311   -2.4849 C   0  0  1  0  0  0  0  0  0  0  0  0
    3.1304   -0.5617   -2.1692 N   0  0  0  0  0  4  0  0  0  0  0  0
    3.6198    0.6656   -1.8359 C   0  0  0  0  0  0  0  0  0  0  0  0
    2.7903    1.6961   -1.3960 C   0  0  0  0  0  0  0  0  0  0  0  0
    1.4267    1.4836   -1.3230 C   0  0  0  0  0  0  0  0  0  0  0  0
    0.9285    0.2579   -1.7399 C   0  0  0  0  0  0  0  0  0  0  0  0
   -0.5122   -0.0017   -1.6719 C   0  0  0  0  0  0  0  0  0  0  0  0
   -1.0375   -0.2235   -0.5853 O   0  0  0  0  0  0  0  0  0  0  0  0
   -1.1835    0.0498   -2.8485 N   0  0  0  0  0  0  0  0  0  0  0  0
    1.7858   -0.7574   -2.1537 C   0  0  0  0  0  0  0  0  0  0  0  0
    3.6400   -3.0743   -2.5569 C   0  0  2  0  0  0  0  0  0  0  0  0
    4.6720   -3.9492   -2.0531 O   0  0  0  0  0  0  0  0  0  0  0  0
    3.4336   -3.3653   -4.0449 C   0  0  2  0  0  0  0  0  0  0  0  0
    3.6724   -4.7617   -4.2856 O   0  0  0  0  0  0  0  0  0  0  0  0
   -3.7661   -2.9995   -8.9791 H   0  0  0  0  0  0  0  0  0  0  0  0
   -1.9474   -3.5099   -6.8947 H   0  0  0  0  0  0  0  0  0  0  0  0
   -1.9394   -5.1870   -8.6821 H   0  0  0  0  0  0  0  0  0  0  0  0
   -1.8563   -3.1006  -10.6083 H   0  0  0  0  0  0  0  0  0  0  0  0
    0.2545   -4.0209   -9.9705 H   0  0  0  0  0  0  0  0  0  0  0  0
    0.8857   -3.3618   -6.3661 H   0  0  0  0  0  0  0  0  0  0  0  0
    3.2425   -9.1265   -6.1489 H   0  0  0  0  0  0  0  0  0  0  0  0
    3.0939   -7.6007   -5.2718 H   0  0  0  0  0  0  0  0  0  0  0  0
    1.1269   -8.6184  -10.0927 H   0  0  0  0  0  0  0  0  0  0  0  0
   -1.7086   -1.3989   -9.1138 H   0  0  0  0  0  0  0  0  0  0  0  0
   -0.4385   -1.3607   -6.3546 H   0  0  0  0  0  0  0  0  0  0  0  0
   -2.1126   -0.7835   -6.5967 H   0  0  0  0  0  0  0  0  0  0  0  0
    3.1271   -2.5633   -6.5393 H   0  0  0  0  0  0  0  0  0  0  0  0
    4.7839   -2.1723   -6.8907 H   0  0  0  0  0  0  0  0  0  0  0  0
    5.3309   -3.1342   -4.9969 H   0  0  0  0  0  0  0  0  0  0  0  0
    4.8625   -0.3890   -4.1593 H   0  0  0  0  0  0  0  0  0  0  0  0
    5.9730   -1.5847   -3.5855 H   0  0  0  0  0  0  0  0  0  0  0  0
    4.8401   -1.5527   -1.6456 H   0  0  0  0  0  0  0  0  0  0  0  0
    4.6862    0.8187   -1.9531 H   0  0  0  0  0  0  0  0  0  0  0  0
    3.2100    2.6679   -1.1602 H   0  0  0  0  0  0  0  0  0  0  0  0
    0.7531    2.2734   -0.9940 H   0  0  0  0  0  0  0  0  0  0  0  0
   -0.7541    0.3657   -3.7503 H   0  0  0  0  0  0  0  0  0  0  0  0
   -2.1888   -0.0348   -2.8853 H   0  0  0  0  0  0  0  0  0  0  0  0
    1.3856   -1.7059   -2.4994 H   0  0  0  0  0  0  0  0  0  0  0  0
    2.7488   -3.2923   -1.9636 H   0  0  0  0  0  0  0  0  0  0  0  0
    4.5907   -4.7532   -2.6151 H   0  0  0  0  0  0  0  0  0  0  0  0
    2.4000   -3.1758   -4.3165 H   0  0  0  0  0  0  0  0  0  0  0  0
    3.0966   -4.9831   -5.0574 H   0  0  0  0  0  0  0  0  0  0  0  0
 45  1  1  0
  1  2  1  0
  2 46  1  1
  2  3  1  0
  3 47  1  1
  3  4  1  0
  4 48  1  0
  3  5  1  0
  5 49  1  6
  5  6  1  0
  6  7  1  0
  7 50  1  0
  7  8  2  0
  8  9  1  0
  9 10  1  0
 10 11  1  0
 11 51  1  0
 11 52  1  0
 10 12  2  0
 12 13  1  0
 13 53  1  0
 13 14  2  0
  9 15  2  0
  6 15  1  0
 14 15  1  0
  5 16  1  0
  2 17  1  0
 16 17  1  0
 17 54  1  6
 17 18  1  0
 18 55  1  0
 18 56  1  0
 18 19  1  0
 19 20  1  0
 20 21  2  0
 20 22  1  1
 20 23  1  0
 23 24  1  0
 24 25  2  0
 24 26  1  1
 24 27  1  0
 27 28  1  0
 28 57  1  0
 28 58  1  0
 28 29  1  0
 29 59  1  6
 29 30  1  0
 30 60  1  0
 30 61  1  0
 30 31  1  0
 31 62  1  1
 31 32  1  0
 32 33  2  0
 33 63  1  0
 33 34  1  0
 34 64  1  0
 34 35  2  0
 35 65  1  0
 35 36  1  0
 36 37  1  0
 37 38  2  0
 37 39  1  0
 39 66  1  0
 39 67  1  0
 32 40  1  0
 36 40  2  0
 40 68  1  0
 31 41  1  0
 41 69  1  1
 41 42  1  0
 42 70  1  0
 29 43  1  0
 41 43  1  0
 43 71  1  6
 43 44  1  0
 44 72  1  0
M  CHG  3  22  -1  26  -1  32   1
M  END
>  <conformer_energy>  (1) 
-150.30

>  <ligand_smiles>  (1) 
NC(=O)c1ccc[n+]([C@@H]2C[C@H](CO[P@](=O)([O-])O[P@](=O)([O-])OC[C@H]3O[C@@H](n4cnc5c(N)ncnc54)[C@H](O)[C@@H]3O)[C@@H](O)[C@H]2O)c1

>  <ligand_conf_name>  (1) 
MOL_0_isomer_0_conf_0

>  <ligand_molecule_name>  (1) 
MOL_0_isomer_0

$$$$
