MOL_0_isomer_0_conf_0
     RDKit          3D

 33 34  0  0  0  0  0  0  0  0999 V2000
    3.5903   -0.6558   -3.1335 O   0  0  0  0  0  0  0  0  0  0  0  0
    3.3274   -0.0343   -1.8483 C   0  0  1  0  0  0  0  0  0  0  0  0
    3.6417    1.4525   -1.9749 C   0  0  1  0  0  0  0  0  0  0  0  0
    4.8445    1.6362   -2.7307 O   0  0  0  0  0  0  0  0  0  0  0  0
    2.3666    1.9791   -2.6685 C   0  0  2  0  0  0  0  0  0  0  0  0
    1.9733    3.3200   -2.2515 N   0  0  0  0  0  0  0  0  0  0  0  0
    1.0746    3.5012   -1.2260 C   0  0  0  0  0  0  0  0  0  0  0  0
    0.7903    4.7088   -0.7518 C   0  0  0  0  0  0  0  0  0  0  0  0
    1.4845    5.8270   -1.4031 C   0  0  0  0  0  0  0  0  0  0  0  0
    1.2635    7.0951   -0.9560 N   0  0  0  0  0  0  0  0  0  0  0  0
    2.3092    5.6811   -2.3957 N   0  0  0  0  0  0  0  0  0  0  0  0
    2.5860    4.4126   -2.8665 C   0  0  0  0  0  0  0  0  0  0  0  0
    3.3523    4.2674   -3.8194 O   0  0  0  0  0  0  0  0  0  0  0  0
    1.3177    1.0156   -2.4121 O   0  0  0  0  0  0  0  0  0  0  0  0
    1.8368   -0.0286   -1.5436 C   0  0  2  0  0  0  0  0  0  0  0  0
    1.5724    0.2197   -0.0561 C   0  0  0  0  0  0  0  0  0  0  0  0
    0.1806    0.2203    0.1891 O   0  0  0  0  0  0  0  0  0  0  0  0
   -0.2418    0.7873    1.6715 P   0  0  0  0  0  5  0  0  0  0  0  0
   -1.7326    0.5128    1.7465 O   0  0  0  0  0  0  0  0  0  0  0  0
    0.1341    2.2620    1.6040 O   0  0  0  0  0  1  0  0  0  0  0  0
    0.6219   -0.0353    2.6161 O   0  0  0  0  0  1  0  0  0  0  0  0
    2.7341   -0.6803   -3.6051 H   0  0  0  0  0  0  0  0  0  0  0  0
    3.9472   -0.5475   -1.1083 H   0  0  0  0  0  0  0  0  0  0  0  0
    3.7813    1.9176   -0.9934 H   0  0  0  0  0  0  0  0  0  0  0  0
    4.8486    0.9013   -3.3761 H   0  0  0  0  0  0  0  0  0  0  0  0
    2.5154    1.9909   -3.7553 H   0  0  0  0  0  0  0  0  0  0  0  0
    0.5906    2.6349   -0.7837 H   0  0  0  0  0  0  0  0  0  0  0  0
    0.1080    4.8423    0.0773 H   0  0  0  0  0  0  0  0  0  0  0  0
    0.6913    7.2690   -0.1421 H   0  0  0  0  0  0  0  0  0  0  0  0
    1.7795    7.8459   -1.3877 H   0  0  0  0  0  0  0  0  0  0  0  0
    1.3459   -0.9573   -1.8546 H   0  0  0  0  0  0  0  0  0  0  0  0
    2.0088    1.1661    0.2736 H   0  0  0  0  0  0  0  0  0  0  0  0
    2.0301   -0.5870    0.5270 H   0  0  0  0  0  0  0  0  0  0  0  0
 22  1  1  0
  1  2  1  0
  2 23  1  1
  2  3  1  0
  3 24  1  1
  3  4  1  0
  4 25  1  0
  3  5  1  0
  5 26  1  6
  5  6  1  0
  6  7  1  0
  7 27  1  0
  7  8  2  0
  8 28  1  0
  8  9  1  0
  9 10  1  0
 10 29  1  0
 10 30  1  0
  9 11  2  0
  6 12  1  0
 11 12  1  0
 12 13  2  0
  5 14  1  0
  2 15  1  0
 14 15  1  0
 15 31  1  6
 15 16  1  0
 16 32  1  0
 16 33  1  0
 16 17  1  0
 17 18  1  0
 18 19  2  0
 18 20  1  0
 18 21  1  0
M  CHG  2  20  -1  21  -1
M  END
>  <conformer_energy>  (1) 
-90.49

>  <ligand_smiles>  (1) 
Nc1ccn([C@@H]2O[C@H](COP(=O)([O-])[O-])[C@@H](O)[C@H]2O)c(=O)n1

>  <ligand_conf_name>  (1) 
MOL_0_isomer_0_conf_0

>  <ligand_molecule_name>  (1) 
MOL_0_isomer_0

$$$$
