MOL_0_isomer_0_conf_0
     RDKit          3D

 67 69  0  0  0  0  0  0  0  0999 V2000
    0.6500   -5.0085    7.2119 C   0  0  0  0  0  0  0  0  0  0  0  0
    1.1996   -4.0427    6.3718 C   0  0  0  0  0  0  0  0  0  0  0  0
    0.5962   -3.7535    5.1451 C   0  0  0  0  0  0  0  0  0  0  0  0
   -0.5625   -4.4312    4.7458 C   0  0  0  0  0  0  0  0  0  0  0  0
   -1.2138   -4.1157    3.4199 C   0  0  0  0  0  0  0  0  0  0  0  0
   -1.1382   -5.2961    2.4476 C   0  0  0  0  0  0  0  0  0  0  0  0
   -1.6425   -4.9825    1.0416 C   0  0  1  0  0  0  0  0  0  0  0  0
   -3.1324   -4.5084    0.9514 C   0  0  0  0  0  0  0  0  0  0  0  0
   -3.9484   -5.0036    1.7592 O   0  0  0  0  0  0  0  0  0  0  0  0
   -3.2886   -3.6427    0.0320 O   0  0  0  0  0  1  0  0  0  0  0  0
   -0.7174   -4.0012    0.3342 N   0  0  0  0  0  4  0  0  0  0  0  0
    0.7026   -4.3266   -0.0186 C   0  0  2  0  0  0  0  0  0  0  0  0
    1.2860   -3.1032   -0.7614 C   0  0  0  0  0  0  0  0  0  0  0  0
    1.2316   -2.9844   -1.9812 O   0  0  0  0  0  0  0  0  0  0  0  0
    1.7570   -2.1426    0.0868 N   0  0  0  0  0  0  0  0  0  0  0  0
    2.1733   -0.7846   -0.3086 C   0  0  2  0  0  0  0  0  0  0  0  0
    3.0946   -0.1510    0.7788 C   0  0  0  0  0  0  0  0  0  0  0  0
    3.0805   -0.7837    1.8824 O   0  0  0  0  0  0  0  0  0  0  0  0
    3.7490    0.8703    0.4322 O   0  0  0  0  0  1  0  0  0  0  0  0
    0.9902    0.1807   -0.5451 C   0  0  0  0  0  0  0  0  0  0  0  0
   -0.3269   -0.2363    0.0634 C   0  0  0  0  0  0  0  0  0  0  0  0
   -1.4108   -0.7492   -0.6262 C   0  0  0  0  0  0  0  0  0  0  0  0
   -2.3939   -1.0583    0.2746 N   0  0  0  0  0  0  0  0  0  0  0  0
   -1.9926   -0.7197    1.5445 C   0  0  0  0  0  0  0  0  0  0  0  0
   -2.6659   -0.8609    2.7631 C   0  0  0  0  0  0  0  0  0  0  0  0
   -1.9958   -0.4607    3.9235 C   0  0  0  0  0  0  0  0  0  0  0  0
   -0.7067    0.0593    3.8598 C   0  0  0  0  0  0  0  0  0  0  0  0
   -0.0542    0.1989    2.6302 C   0  0  0  0  0  0  0  0  0  0  0  0
   -0.7028   -0.1993    1.4448 C   0  0  0  0  0  0  0  0  0  0  0  0
    0.7790   -5.5987   -0.8736 C   0  0  0  0  0  0  0  0  0  0  0  0
    2.2312   -6.0047   -1.1627 C   0  0  0  0  0  0  0  0  0  0  0  0
    2.2991   -7.2982   -1.9743 C   0  0  0  0  0  0  0  0  0  0  0  0
    3.7372   -7.7026   -2.2545 C   0  0  0  0  0  0  0  0  0  0  0  0
   -1.1129   -5.3939    5.6025 C   0  0  0  0  0  0  0  0  0  0  0  0
   -0.5058   -5.6834    6.8267 C   0  0  0  0  0  0  0  0  0  0  0  0
    1.1209   -5.2283    8.1649 H   0  0  0  0  0  0  0  0  0  0  0  0
    2.0954   -3.5070    6.6749 H   0  0  0  0  0  0  0  0  0  0  0  0
    1.0342   -2.9839    4.5117 H   0  0  0  0  0  0  0  0  0  0  0  0
   -0.7212   -3.2391    2.9862 H   0  0  0  0  0  0  0  0  0  0  0  0
   -2.2570   -3.8327    3.6030 H   0  0  0  0  0  0  0  0  0  0  0  0
   -1.7248   -6.1325    2.8517 H   0  0  0  0  0  0  0  0  0  0  0  0
   -0.1058   -5.6683    2.3997 H   0  0  0  0  0  0  0  0  0  0  0  0
   -1.6143   -5.8967    0.4401 H   0  0  0  0  0  0  0  0  0  0  0  0
   -0.7447   -3.0988    0.8396 H   0  0  0  0  0  0  0  0  0  0  0  0
   -1.2600   -3.7314   -0.5122 H   0  0  0  0  0  0  0  0  0  0  0  0
    1.2358   -4.4626    0.9290 H   0  0  0  0  0  0  0  0  0  0  0  0
    1.8837   -2.2729    1.0898 H   0  0  0  0  0  0  0  0  0  0  0  0
    2.7635   -0.8680   -1.2338 H   0  0  0  0  0  0  0  0  0  0  0  0
    0.8439    0.2729   -1.6327 H   0  0  0  0  0  0  0  0  0  0  0  0
    1.2191    1.1968   -0.1985 H   0  0  0  0  0  0  0  0  0  0  0  0
   -1.5499   -0.9514   -1.6793 H   0  0  0  0  0  0  0  0  0  0  0  0
   -3.2469   -1.5719    0.0561 H   0  0  0  0  0  0  0  0  0  0  0  0
   -3.6663   -1.2791    2.8093 H   0  0  0  0  0  0  0  0  0  0  0  0
   -2.4806   -0.5682    4.8911 H   0  0  0  0  0  0  0  0  0  0  0  0
   -0.1966    0.3587    4.7712 H   0  0  0  0  0  0  0  0  0  0  0  0
    0.9568    0.5971    2.5974 H   0  0  0  0  0  0  0  0  0  0  0  0
    0.2386   -5.4615   -1.8201 H   0  0  0  0  0  0  0  0  0  0  0  0
    0.3036   -6.4381   -0.3509 H   0  0  0  0  0  0  0  0  0  0  0  0
    2.7454   -5.2097   -1.7138 H   0  0  0  0  0  0  0  0  0  0  0  0
    2.7683   -6.1414   -0.2146 H   0  0  0  0  0  0  0  0  0  0  0  0
    1.7985   -8.1059   -1.4289 H   0  0  0  0  0  0  0  0  0  0  0  0
    1.7737   -7.1696   -2.9271 H   0  0  0  0  0  0  0  0  0  0  0  0
    3.7648   -8.6334   -2.8307 H   0  0  0  0  0  0  0  0  0  0  0  0
    4.2542   -6.9304   -2.8311 H   0  0  0  0  0  0  0  0  0  0  0  0
    4.2865   -7.8660   -1.3217 H   0  0  0  0  0  0  0  0  0  0  0  0
   -2.0199   -5.9218    5.3213 H   0  0  0  0  0  0  0  0  0  0  0  0
   -0.9409   -6.4374    7.4764 H   0  0  0  0  0  0  0  0  0  0  0  0
 36  1  1  0
  1  2  2  0
  2 37  1  0
  2  3  1  0
  3 38  1  0
  3  4  2  0
  4  5  1  0
  5 39  1  0
  5 40  1  0
  5  6  1  0
  6 41  1  0
  6 42  1  0
  6  7  1  0
  7 43  1  6
  7  8  1  0
  8  9  2  0
  8 10  1  0
  7 11  1  0
 11 44  1  0
 11 45  1  0
 11 12  1  0
 12 46  1  1
 12 13  1  0
 13 14  2  0
 13 15  1  0
 15 47  1  0
 15 16  1  0
 16 48  1  6
 16 17  1  0
 17 18  2  0
 17 19  1  0
 16 20  1  0
 20 49  1  0
 20 50  1  0
 20 21  1  0
 21 22  2  0
 22 51  1  0
 22 23  1  0
 23 52  1  0
 23 24  1  0
 24 25  1  0
 25 53  1  0
 25 26  2  0
 26 54  1  0
 26 27  1  0
 27 55  1  0
 27 28  2  0
 28 56  1  0
 21 29  1  0
 24 29  2  0
 28 29  1  0
 12 30  1  0
 30 57  1  0
 30 58  1  0
 30 31  1  0
 31 59  1  0
 31 60  1  0
 31 32  1  0
 32 61  1  0
 32 62  1  0
 32 33  1  0
 33 63  1  0
 33 64  1  0
 33 65  1  0
  4 34  1  0
 34 66  1  0
  1 35  1  0
 34 35  2  0
 35 67  1  0
M  CHG  3  10  -1  11   1  19  -1
M  END
>  <conformer_energy>  (1) 
79.80

>  <ligand_smiles>  (1) 
CCCC[C@H]([NH2+][C@@H](CCc1ccccc1)C(=O)[O-])C(=O)N[C@@H](Cc1c[nH]c2ccccc12)C(=O)[O-]

>  <ligand_conf_name>  (1) 
MOL_0_isomer_0_conf_0

>  <ligand_molecule_name>  (1) 
MOL_0_isomer_0

$$$$
