MOL_0_isomer_0_conf_0
     RDKit          3D

 55 58  0  0  0  0  0  0  0  0999 V2000
   14.1068    1.5938    1.6958 O   0  0  0  0  0  0  0  0  0  0  0  0
   14.0293    1.1306    0.3454 C   0  0  0  0  0  0  0  0  0  0  0  0
   14.8513   -0.1649    0.2812 C   0  0  0  0  0  0  0  0  0  0  0  0
   14.7064    2.1738   -0.5559 C   0  0  0  0  0  0  0  0  0  0  0  0
   12.5359    0.8841   -0.0504 C   0  0  2  0  0  0  0  0  0  0  0  0
   11.6973    2.1816   -0.0732 C   0  0  0  0  0  0  0  0  0  0  0  0
   10.2422    1.9269   -0.4634 C   0  0  0  0  0  0  0  0  0  0  0  0
    9.5791    0.9037    0.4585 C   0  0  1  0  0  0  0  0  0  0  0  0
    8.2128    0.6446    0.0280 N   0  0  0  0  0  0  0  0  0  0  0  0
    7.2280    0.2790    0.9148 C   0  0  0  0  0  0  0  0  0  0  0  0
    7.3869    0.2087    2.1279 O   0  0  0  0  0  0  0  0  0  0  0  0
    5.9026    0.0081    0.2844 C   0  0  0  0  0  0  0  0  0  0  0  0
    5.7455   -0.6623   -1.0062 C   0  0  0  0  0  0  0  0  0  0  0  0
    4.5268   -0.8883   -1.5364 C   0  0  0  0  0  0  0  0  0  0  0  0
    3.3615   -0.4807   -0.8284 C   0  0  0  0  0  0  0  0  0  0  0  0
    2.0847   -0.5748   -1.1273 N   0  0  0  0  0  0  0  0  0  0  0  0
    1.4080   -0.0293   -0.0545 C   0  0  0  0  0  0  0  0  0  0  0  0
   -0.0454    0.0543    0.0054 C   0  0  0  0  0  0  0  0  0  0  0  0
   -0.7198    0.5987    1.1080 C   0  0  0  0  0  0  0  0  0  0  0  0
   -2.1171    0.6627    1.1303 C   0  0  0  0  0  0  0  0  0  0  0  0
   -2.8571    0.1835    0.0518 C   0  0  0  0  0  0  0  0  0  0  0  0
   -2.2025   -0.3603   -1.0501 C   0  0  0  0  0  0  0  0  0  0  0  0
   -0.8066   -0.4240   -1.0718 C   0  0  0  0  0  0  0  0  0  0  0  0
    2.3002    0.4035    0.9055 C   0  0  0  0  0  0  0  0  0  0  0  0
    3.5478    0.1199    0.4102 N   0  0  0  0  0  0  0  0  0  0  0  0
    4.7977    0.3618    0.9694 C   0  0  0  0  0  0  0  0  0  0  0  0
   10.3873   -0.3945    0.4843 C   0  0  0  0  0  0  0  0  0  0  0  0
   11.8456   -0.1487    0.8691 C   0  0  0  0  0  0  0  0  0  0  0  0
   13.7621    2.5015    1.7328 H   0  0  0  0  0  0  0  0  0  0  0  0
   14.5386   -0.8828    1.0462 H   0  0  0  0  0  0  0  0  0  0  0  0
   15.9095    0.0354    0.4882 H   0  0  0  0  0  0  0  0  0  0  0  0
   14.7795   -0.6390   -0.7029 H   0  0  0  0  0  0  0  0  0  0  0  0
   14.2786    3.1718   -0.4158 H   0  0  0  0  0  0  0  0  0  0  0  0
   14.6303    1.9004   -1.6131 H   0  0  0  0  0  0  0  0  0  0  0  0
   15.7685    2.2754   -0.3025 H   0  0  0  0  0  0  0  0  0  0  0  0
   12.5291    0.4748   -1.0710 H   0  0  0  0  0  0  0  0  0  0  0  0
   12.1146    2.8939   -0.7926 H   0  0  0  0  0  0  0  0  0  0  0  0
   11.7211    2.6658    0.9104 H   0  0  0  0  0  0  0  0  0  0  0  0
    9.6855    2.8717   -0.4324 H   0  0  0  0  0  0  0  0  0  0  0  0
   10.2016    1.5790   -1.5041 H   0  0  0  0  0  0  0  0  0  0  0  0
    9.5432    1.3167    1.4748 H   0  0  0  0  0  0  0  0  0  0  0  0
    7.9947    0.7248   -0.9555 H   0  0  0  0  0  0  0  0  0  0  0  0
    6.6328   -1.0122   -1.5241 H   0  0  0  0  0  0  0  0  0  0  0  0
    4.4011   -1.3960   -2.4861 H   0  0  0  0  0  0  0  0  0  0  0  0
   -0.1749    0.9803    1.9664 H   0  0  0  0  0  0  0  0  0  0  0  0
   -2.6263    1.0868    1.9919 H   0  0  0  0  0  0  0  0  0  0  0  0
   -3.9426    0.2332    0.0701 H   0  0  0  0  0  0  0  0  0  0  0  0
   -2.7738   -0.7366   -1.8945 H   0  0  0  0  0  0  0  0  0  0  0  0
   -0.3103   -0.8529   -1.9408 H   0  0  0  0  0  0  0  0  0  0  0  0
    2.1718    0.8755    1.8680 H   0  0  0  0  0  0  0  0  0  0  0  0
    4.8249    0.8378    1.9428 H   0  0  0  0  0  0  0  0  0  0  0  0
   10.3482   -0.8789   -0.5004 H   0  0  0  0  0  0  0  0  0  0  0  0
    9.9402   -1.1026    1.1928 H   0  0  0  0  0  0  0  0  0  0  0  0
   12.3668   -1.1105    0.8238 H   0  0  0  0  0  0  0  0  0  0  0  0
   11.8873    0.1897    1.9117 H   0  0  0  0  0  0  0  0  0  0  0  0
 29  1  1  0
  1  2  1  0
  2  3  1  0
  3 30  1  0
  3 31  1  0
  3 32  1  0
  2  4  1  0
  4 33  1  0
  4 34  1  0
  4 35  1  0
  2  5  1  0
  5 36  1  6
  5  6  1  0
  6 37  1  0
  6 38  1  0
  6  7  1  0
  7 39  1  0
  7 40  1  0
  7  8  1  0
  8 41  1  1
  8  9  1  0
  9 42  1  0
  9 10  1  0
 10 11  2  0
 10 12  1  0
 12 13  1  0
 13 43  1  0
 13 14  2  0
 14 44  1  0
 14 15  1  0
 15 16  2  0
 16 17  1  0
 17 18  1  0
 18 19  2  0
 19 45  1  0
 19 20  1  0
 20 46  1  0
 20 21  2  0
 21 47  1  0
 21 22  1  0
 22 48  1  0
 18 23  1  0
 22 23  2  0
 23 49  1  0
 17 24  2  0
 24 50  1  0
 15 25  1  0
 24 25  1  0
 12 26  2  0
 25 26  1  0
 26 51  1  0
  8 27  1  0
 27 52  1  0
 27 53  1  0
  5 28  1  0
 27 28  1  0
 28 54  1  0
 28 55  1  0
M  END
>  <conformer_energy>  (1) 
40.08

>  <ligand_smiles>  (1) 
CC(C)(O)[C@H]1CC[C@H](NC(=O)c2ccc3nc(-c4ccccc4)cn3c2)CC1

>  <ligand_conf_name>  (1) 
MOL_0_isomer_0_conf_0

>  <ligand_molecule_name>  (1) 
MOL_0_isomer_0

$$$$
