MOL_0_isomer_0_chiral_N_isomer_0_conf_0
     RDKit          3D

 29 29  0  0  0  0  0  0  0  0999 V2000
    2.8965    0.3529    4.1990 C   0  0  0  0  0  0  0  0  0  0  0  0
    2.5228   -0.7036    3.3696 C   0  0  0  0  0  0  0  0  0  0  0  0
    3.3165   -1.0226    2.2620 C   0  0  0  0  0  0  0  0  0  0  0  0
    2.8307   -2.3450    1.1818 S   0  0  0  0  0  6  0  0  0  0  0  0
    1.8523   -3.1564    1.8794 O   0  0  0  0  0  0  0  0  0  0  0  0
    4.0441   -2.9511    0.6693 O   0  0  0  0  0  0  0  0  0  0  0  0
    2.0664   -1.5826   -0.1149 N   0  0  0  0  0  0  0  0  0  0  0  0
    0.8365   -0.7618    0.2090 C   0  0  1  0  0  0  0  0  0  0  0  0
    1.2644    0.7311    0.3417 C   0  0  0  0  0  0  0  0  0  0  0  0
    2.3916    0.9840   -0.1919 O   0  0  0  0  0  0  0  0  0  0  0  0
    0.4719    1.4838    0.9689 O   0  0  0  0  0  1  0  0  0  0  0  0
   -0.1197   -0.8508   -0.9686 C   0  0  0  0  0  0  0  0  0  0  0  0
    4.5088   -0.3343    2.0122 C   0  0  0  0  0  0  0  0  0  0  0  0
    4.8795    0.7199    2.8462 C   0  0  0  0  0  0  0  0  0  0  0  0
    4.0545    1.0755    3.9124 C   0  0  0  0  0  0  0  0  0  0  0  0
    4.4065    2.1413    4.6979 O   0  0  0  0  0  0  0  0  0  0  0  0
    3.7026    3.3021    4.2451 C   0  0  0  0  0  0  0  0  0  0  0  0
    2.2715    0.6302    5.0417 H   0  0  0  0  0  0  0  0  0  0  0  0
    1.6021   -1.2459    3.5682 H   0  0  0  0  0  0  0  0  0  0  0  0
    2.7263   -0.9036   -0.5412 H   0  0  0  0  0  0  0  0  0  0  0  0
    0.3442   -1.1208    1.1172 H   0  0  0  0  0  0  0  0  0  0  0  0
    0.3383   -0.4747   -1.8908 H   0  0  0  0  0  0  0  0  0  0  0  0
   -1.0266   -0.2652   -0.7844 H   0  0  0  0  0  0  0  0  0  0  0  0
   -0.4169   -1.8898   -1.1478 H   0  0  0  0  0  0  0  0  0  0  0  0
    5.1230   -0.5864    1.1519 H   0  0  0  0  0  0  0  0  0  0  0  0
    5.7829    1.2850    2.6414 H   0  0  0  0  0  0  0  0  0  0  0  0
    4.0469    4.1528    4.8409 H   0  0  0  0  0  0  0  0  0  0  0  0
    2.6231    3.1970    4.4000 H   0  0  0  0  0  0  0  0  0  0  0  0
    3.9203    3.5169    3.1926 H   0  0  0  0  0  0  0  0  0  0  0  0
 18  1  1  0
  1  2  2  0
  2 19  1  0
  2  3  1  0
  3  4  1  0
  4  5  2  0
  4  6  2  0
  4  7  1  0
  7 20  1  6
  7  8  1  0
  8 21  1  1
  8  9  1  0
  9 10  2  0
  9 11  1  0
  8 12  1  0
 12 22  1  0
 12 23  1  0
 12 24  1  0
  3 13  2  0
 13 25  1  0
 13 14  1  0
 14 26  1  0
  1 15  1  0
 14 15  2  0
 15 16  1  0
 16 17  1  0
 17 27  1  0
 17 28  1  0
 17 29  1  0
M  CHG  1  11  -1
M  END
>  <conformer_energy>  (1) 
18.29

>  <ligand_smiles>  (1) 
COc1ccc(S(=O)(=O)N[C@H](C)C(=O)[O-])cc1

>  <ligand_conf_name>  (1) 
MOL_0_isomer_0_chiral_N_isomer_0_conf_0

>  <ligand_molecule_name>  (1) 
MOL_0_isomer_0_chiral_N_isomer_0

$$$$
MOL_0_isomer_0_chiral_N_isomer_1_conf_0
     RDKit          3D

 29 29  0  0  0  0  0  0  0  0999 V2000
    5.5385    0.0611    0.7548 C   0  0  0  0  0  0  0  0  0  0  0  0
    4.2234   -0.3794    0.5778 C   0  0  0  0  0  0  0  0  0  0  0  0
    3.5389   -0.9691    1.6425 C   0  0  0  0  0  0  0  0  0  0  0  0
    1.8690   -1.5426    1.3952 S   0  0  0  0  0  6  0  0  0  0  0  0
    1.5247   -2.3612    2.5423 O   0  0  0  0  0  0  0  0  0  0  0  0
    1.8082   -2.0855    0.0575 O   0  0  0  0  0  0  0  0  0  0  0  0
    0.9915   -0.0974    1.5250 N   0  0  0  0  0  0  0  0  0  0  0  0
   -0.1394    0.1347    0.5303 C   0  0  1  0  0  0  0  0  0  0  0  0
    0.4877    0.6687   -0.7951 C   0  0  0  0  0  0  0  0  0  0  0  0
   -0.1967    0.5434   -1.8444 O   0  0  0  0  0  0  0  0  0  0  0  0
    1.6209    1.2267   -0.6169 O   0  0  0  0  0  1  0  0  0  0  0  0
   -1.1039   -1.0294    0.4361 C   0  0  0  0  0  0  0  0  0  0  0  0
    4.1652   -1.1430    2.8774 C   0  0  0  0  0  0  0  0  0  0  0  0
    5.4813   -0.7051    3.0444 C   0  0  0  0  0  0  0  0  0  0  0  0
    6.1727   -0.0985    1.9893 C   0  0  0  0  0  0  0  0  0  0  0  0
    7.4513    0.2877    2.2906 O   0  0  0  0  0  0  0  0  0  0  0  0
    8.1654    0.9683    1.2662 C   0  0  0  0  0  0  0  0  0  0  0  0
    6.0285    0.5266   -0.0936 H   0  0  0  0  0  0  0  0  0  0  0  0
    3.7307   -0.2442   -0.3857 H   0  0  0  0  0  0  0  0  0  0  0  0
    1.6443    0.6784    1.3061 H   0  0  0  0  0  0  0  0  0  0  0  0
   -0.6982    0.9872    0.9414 H   0  0  0  0  0  0  0  0  0  0  0  0
   -0.6999   -1.8575   -0.1526 H   0  0  0  0  0  0  0  0  0  0  0  0
   -2.0282   -0.7156   -0.0615 H   0  0  0  0  0  0  0  0  0  0  0  0
   -1.3677   -1.4096    1.4284 H   0  0  0  0  0  0  0  0  0  0  0  0
    3.6388   -1.6100    3.7057 H   0  0  0  0  0  0  0  0  0  0  0  0
    5.9718   -0.8341    4.0056 H   0  0  0  0  0  0  0  0  0  0  0  0
    9.1488    1.2345    1.6656 H   0  0  0  0  0  0  0  0  0  0  0  0
    7.6606    1.8972    0.9805 H   0  0  0  0  0  0  0  0  0  0  0  0
    8.3245    0.3196    0.3984 H   0  0  0  0  0  0  0  0  0  0  0  0
 18  1  1  0
  1  2  2  0
  2 19  1  0
  2  3  1  0
  3  4  1  0
  4  5  2  0
  4  6  2  0
  4  7  1  0
  7 20  1  1
  7  8  1  0
  8 21  1  1
  8  9  1  0
  9 10  2  0
  9 11  1  0
  8 12  1  0
 12 22  1  0
 12 23  1  0
 12 24  1  0
  3 13  2  0
 13 25  1  0
 13 14  1  0
 14 26  1  0
  1 15  1  0
 14 15  2  0
 15 16  1  0
 16 17  1  0
 17 27  1  0
 17 28  1  0
 17 29  1  0
M  CHG  1  11  -1
M  END
>  <conformer_energy>  (2) 
25.64

>  <ligand_smiles>  (2) 
COc1ccc(S(=O)(=O)N[C@H](C)C(=O)[O-])cc1

>  <ligand_conf_name>  (2) 
MOL_0_isomer_0_chiral_N_isomer_1_conf_0

>  <ligand_molecule_name>  (2) 
MOL_0_isomer_0_chiral_N_isomer_1

$$$$
