MOL_0_isomer_0_conf_0
     RDKit          3D

 84 86  0  0  0  0  0  0  0  0999 V2000
    5.3227    5.1263   -4.6615 O   0  0  0  0  0  0  0  0  0  0  0  0
    5.9226    4.9143   -3.3902 C   0  0  1  0  0  0  0  0  0  0  0  0
    4.9296    4.3857   -2.3522 C   0  0  0  0  0  0  0  0  0  0  0  0
    5.6986    3.4827   -1.5065 N   0  0  0  0  0  0  0  0  0  0  0  0
    5.2439    2.7612   -0.4269 C   0  0  0  0  0  0  0  0  0  0  0  0
    5.9684    1.9163    0.1129 O   0  0  0  0  0  0  0  0  0  0  0  0
    3.8156    3.0421    0.1022 C   0  0  1  0  0  0  0  0  0  0  0  0
    3.1634    1.7377    0.2123 N   0  0  0  0  0  0  0  0  0  0  0  0
    2.2229    1.3084   -0.6932 C   0  0  0  0  0  0  0  0  0  0  0  0
    1.8506    1.9951   -1.6439 O   0  0  0  0  0  0  0  0  0  0  0  0
    1.6418   -0.0941   -0.4094 C   0  0  1  0  0  0  0  0  0  0  0  0
    0.1989    0.0418   -0.6000 N   0  0  0  0  0  0  0  0  0  0  0  0
   -0.7195   -0.3790    0.3288 C   0  0  0  0  0  0  0  0  0  0  0  0
   -0.4224   -0.9597    1.3674 O   0  0  0  0  0  0  0  0  0  0  0  0
   -2.1420   -0.0798   -0.0578 C   0  0  0  0  0  0  0  0  0  0  0  0
    2.2647   -1.2129   -1.2961 C   0  0  0  0  0  0  0  0  0  0  0  0
    3.7853   -1.2951   -1.0579 C   0  0  0  0  0  0  0  0  0  0  0  0
    2.0188   -0.9808   -2.7989 C   0  0  0  0  0  0  0  0  0  0  0  0
    1.6530   -2.5769   -0.9119 C   0  0  0  0  0  0  0  0  0  0  0  0
    3.7979    3.8331    1.4499 C   0  0  0  0  0  0  0  0  0  0  0  0
    4.5096    5.1892    1.2754 C   0  0  0  0  0  0  0  0  0  0  0  0
    2.3352    4.1191    1.8552 C   0  0  0  0  0  0  0  0  0  0  0  0
    4.4706    3.0751    2.6117 C   0  0  0  0  0  0  0  0  0  0  0  0
    7.0631    3.3166   -2.0153 C   0  0  2  0  0  0  0  0  0  0  0  0
    8.0435    4.1433   -1.1543 C   0  0  0  0  0  0  0  0  0  0  0  0
    8.5394    5.2056   -1.5246 O   0  0  0  0  0  0  0  0  0  0  0  0
    8.2766    3.6130    0.0947 N   0  0  0  0  0  0  0  0  0  0  0  0
    9.2022    4.2168    1.0224 C   0  0  0  0  0  0  0  0  0  0  0  0
    8.8549    3.8661    2.4449 C   0  0  0  0  0  0  0  0  0  0  0  0
    9.4216    2.7487    3.0683 C   0  0  0  0  0  0  0  0  0  0  0  0
    9.0774    2.4190    4.3825 C   0  0  0  0  0  0  0  0  0  0  0  0
    8.1509    3.1948    5.0879 C   0  0  0  0  0  0  0  0  0  0  0  0
    7.7931    2.8486    6.4593 C   0  0  0  0  0  0  0  0  0  0  0  0
    6.2377    2.2048    6.8039 S   0  0  0  0  0  0  0  0  0  0  0  0
    6.6732    2.0827    8.4553 C   0  0  0  0  0  0  0  0  0  0  0  0
    7.8820    2.4927    8.7703 N   0  0  0  0  0  0  0  0  0  0  0  0
    8.5355    2.9355    7.6286 C   0  0  0  0  0  0  0  0  0  0  0  0
    9.9260    3.4457    7.7682 C   0  0  0  0  0  0  0  0  0  0  0  0
    7.5844    4.3129    4.4671 C   0  0  0  0  0  0  0  0  0  0  0  0
    7.9343    4.6458    3.1567 C   0  0  0  0  0  0  0  0  0  0  0  0
    6.9859    3.8179   -3.4545 C   0  0  0  0  0  0  0  0  0  0  0  0
    4.9785    4.2763   -4.9888 H   0  0  0  0  0  0  0  0  0  0  0  0
    6.3623    5.8603   -3.0550 H   0  0  0  0  0  0  0  0  0  0  0  0
    4.1161    3.8174   -2.8170 H   0  0  0  0  0  0  0  0  0  0  0  0
    4.4881    5.1953   -1.7623 H   0  0  0  0  0  0  0  0  0  0  0  0
    3.2626    3.6271   -0.6363 H   0  0  0  0  0  0  0  0  0  0  0  0
    3.5415    1.0827    0.8869 H   0  0  0  0  0  0  0  0  0  0  0  0
    1.8284   -0.3280    0.6462 H   0  0  0  0  0  0  0  0  0  0  0  0
   -0.1071    0.5778   -1.4067 H   0  0  0  0  0  0  0  0  0  0  0  0
   -2.4388   -0.7284   -0.8863 H   0  0  0  0  0  0  0  0  0  0  0  0
   -2.2389    0.9661   -0.3645 H   0  0  0  0  0  0  0  0  0  0  0  0
   -2.8009   -0.2573    0.7972 H   0  0  0  0  0  0  0  0  0  0  0  0
    4.2244   -2.1372   -1.6050 H   0  0  0  0  0  0  0  0  0  0  0  0
    4.2973   -0.3896   -1.4006 H   0  0  0  0  0  0  0  0  0  0  0  0
    4.0148   -1.4360    0.0058 H   0  0  0  0  0  0  0  0  0  0  0  0
    2.4150   -1.8119   -3.3919 H   0  0  0  0  0  0  0  0  0  0  0  0
    2.5080   -0.0685   -3.1545 H   0  0  0  0  0  0  0  0  0  0  0  0
    0.9518   -0.9038   -3.0277 H   0  0  0  0  0  0  0  0  0  0  0  0
    0.5823   -2.6180   -1.1395 H   0  0  0  0  0  0  0  0  0  0  0  0
    2.1311   -3.3948   -1.4650 H   0  0  0  0  0  0  0  0  0  0  0  0
    1.7812   -2.7812    0.1565 H   0  0  0  0  0  0  0  0  0  0  0  0
    4.4586    5.7846    2.1943 H   0  0  0  0  0  0  0  0  0  0  0  0
    5.5684    5.0619    1.0255 H   0  0  0  0  0  0  0  0  0  0  0  0
    4.0475    5.7759    0.4734 H   0  0  0  0  0  0  0  0  0  0  0  0
    2.2917    4.6900    2.7873 H   0  0  0  0  0  0  0  0  0  0  0  0
    1.7721    3.1929    2.0154 H   0  0  0  0  0  0  0  0  0  0  0  0
    1.8163    4.6971    1.0854 H   0  0  0  0  0  0  0  0  0  0  0  0
    3.9703    2.1224    2.8216 H   0  0  0  0  0  0  0  0  0  0  0  0
    5.5251    2.8651    2.4076 H   0  0  0  0  0  0  0  0  0  0  0  0
    4.4355    3.6662    3.5342 H   0  0  0  0  0  0  0  0  0  0  0  0
    7.3670    2.2646   -1.9742 H   0  0  0  0  0  0  0  0  0  0  0  0
    7.7393    2.7984    0.3862 H   0  0  0  0  0  0  0  0  0  0  0  0
    9.2136    5.3053    0.8897 H   0  0  0  0  0  0  0  0  0  0  0  0
   10.2046    3.8517    0.7718 H   0  0  0  0  0  0  0  0  0  0  0  0
   10.1341    2.1240    2.5353 H   0  0  0  0  0  0  0  0  0  0  0  0
    9.5347    1.5510    4.8496 H   0  0  0  0  0  0  0  0  0  0  0  0
    5.9872    1.6890    9.1946 H   0  0  0  0  0  0  0  0  0  0  0  0
   10.1812    3.6047    8.8192 H   0  0  0  0  0  0  0  0  0  0  0  0
   10.0474    4.3996    7.2455 H   0  0  0  0  0  0  0  0  0  0  0  0
   10.6369    2.7246    7.3532 H   0  0  0  0  0  0  0  0  0  0  0  0
    6.8694    4.9355    5.0015 H   0  0  0  0  0  0  0  0  0  0  0  0
    7.4786    5.5145    2.6876 H   0  0  0  0  0  0  0  0  0  0  0  0
    7.9363    4.1916   -3.8453 H   0  0  0  0  0  0  0  0  0  0  0  0
    6.6580    3.0100   -4.1230 H   0  0  0  0  0  0  0  0  0  0  0  0
 42  1  1  0
  1  2  1  0
  2 43  1  1
  2  3  1  0
  3 44  1  0
  3 45  1  0
  3  4  1  0
  4  5  1  0
  5  6  2  0
  5  7  1  0
  7 46  1  6
  7  8  1  0
  8 47  1  0
  8  9  1  0
  9 10  2  0
  9 11  1  0
 11 48  1  1
 11 12  1  0
 12 49  1  0
 12 13  1  0
 13 14  2  0
 13 15  1  0
 15 50  1  0
 15 51  1  0
 15 52  1  0
 11 16  1  0
 16 17  1  0
 17 53  1  0
 17 54  1  0
 17 55  1  0
 16 18  1  0
 18 56  1  0
 18 57  1  0
 18 58  1  0
 16 19  1  0
 19 59  1  0
 19 60  1  0
 19 61  1  0
  7 20  1  0
 20 21  1  0
 21 62  1  0
 21 63  1  0
 21 64  1  0
 20 22  1  0
 22 65  1  0
 22 66  1  0
 22 67  1  0
 20 23  1  0
 23 68  1  0
 23 69  1  0
 23 70  1  0
  4 24  1  0
 24 71  1  6
 24 25  1  0
 25 26  2  0
 25 27  1  0
 27 72  1  0
 27 28  1  0
 28 73  1  0
 28 74  1  0
 28 29  1  0
 29 30  2  0
 30 75  1  0
 30 31  1  0
 31 76  1  0
 31 32  2  0
 32 33  1  0
 33 34  1  0
 34 35  1  0
 35 77  1  0
 35 36  2  0
 33 37  2  0
 36 37  1  0
 37 38  1  0
 38 78  1  0
 38 79  1  0
 38 80  1  0
 32 39  1  0
 39 81  1  0
 29 40  1  0
 39 40  2  0
 40 82  1  0
  2 41  1  0
 24 41  1  0
 41 83  1  0
 41 84  1  0
M  END
>  <conformer_energy>  (1) 
81.75

>  <ligand_smiles>  (1) 
CC(=O)N[C@H](C(=O)N[C@H](C(=O)N1C[C@H](O)C[C@H]1C(=O)NCc1ccc(-c2scnc2C)cc1)C(C)(C)C)C(C)(C)C

>  <ligand_conf_name>  (1) 
MOL_0_isomer_0_conf_0

>  <ligand_molecule_name>  (1) 
MOL_0_isomer_0

$$$$
