2BM2 - prepared_ligand4_conf_0
     RDKit          3D

 60 63  0  0  0  0  0  0  0  0999 V2000
    8.5316    5.5976    2.2095 C   0  0  0  0  0  0  0  0  0  0  0  0
    9.2504    6.5356    1.5503 N   0  0  0  0  0  0  0  0  0  0  0  0
   10.1959    6.0838    0.6929 C   0  0  0  0  0  0  0  0  0  0  0  0
   10.4584    4.7357    0.4556 C   0  0  0  0  0  0  0  0  0  0  0  0
   11.5235    4.3104   -0.5185 C   0  0  0  0  0  0  0  0  0  0  0  0
   10.9461    4.0802   -1.9178 C   0  0  0  0  0  0  0  0  0  0  0  0
   12.0130    3.6646   -2.8989 C   0  0  0  0  0  0  0  0  0  0  0  0
   12.3584    2.3141   -3.0434 C   0  0  0  0  0  0  0  0  0  0  0  0
   13.3602    1.9327   -3.9372 C   0  0  0  0  0  0  0  0  0  0  0  0
   14.0280    2.8962   -4.6903 C   0  0  0  0  0  0  0  0  0  0  0  0
   13.6957    4.2423   -4.5499 C   0  0  0  0  0  0  0  0  0  0  0  0
   12.6943    4.6263   -3.6568 C   0  0  0  0  0  0  0  0  0  0  0  0
    9.6799    3.7947    1.1369 C   0  0  0  0  0  0  0  0  0  0  0  0
    8.6866    4.2343    2.0109 C   0  0  0  0  0  0  0  0  0  0  0  0
    7.8719    3.2639    2.7587 C   0  0  0  0  0  0  0  0  0  0  0  0
    8.4682    2.4137    3.4152 O   0  0  0  0  0  0  0  0  0  0  0  0
    6.4818    3.3405    2.6909 N   0  0  0  0  0  0  0  0  0  0  0  0
    5.7160    4.0765    1.6832 C   0  0  0  0  0  0  0  0  0  0  0  0
    4.8967    3.1060    0.8302 C   0  0  0  0  0  0  0  0  0  0  0  0
    4.0314    2.1813    1.7091 C   0  0  0  0  0  0  0  0  0  0  0  0
    3.2325    1.1806    0.8871 C   0  0  0  0  0  0  0  0  0  0  0  0
    3.8656    0.2712    0.0288 C   0  0  0  0  0  0  0  0  0  0  0  0
    3.1224   -0.6386   -0.7221 C   0  0  0  0  0  0  0  0  0  0  0  0
    1.7334   -0.6610   -0.6211 C   0  0  0  0  0  0  0  0  0  0  0  0
    1.0738    0.2321    0.2342 C   0  0  0  0  0  0  0  0  0  0  0  0
   -0.4151    0.1679    0.3912 C   0  0  0  0  0  0  0  0  0  0  0  0
   -0.7891   -0.8213    1.4246 N   0  0  0  0  0  0  0  0  0  0  0  0
    1.8322    1.1464    0.9860 C   0  0  0  0  0  0  0  0  0  0  0  0
    4.8927    1.4746    2.7718 C   0  0  0  0  0  0  0  0  0  0  0  0
    5.6914    2.4942    3.5780 C   0  0  0  0  0  0  0  0  0  0  0  0
    7.8083    5.9887    2.9190 H   0  0  0  0  0  0  0  0  0  0  0  0
   10.7604    6.8656    0.1894 H   0  0  0  0  0  0  0  0  0  0  0  0
   12.0085    3.3980   -0.1473 H   0  0  0  0  0  0  0  0  0  0  0  0
   12.3142    5.0714   -0.5512 H   0  0  0  0  0  0  0  0  0  0  0  0
   10.1627    3.3112   -1.8889 H   0  0  0  0  0  0  0  0  0  0  0  0
   10.4502    4.9897   -2.2818 H   0  0  0  0  0  0  0  0  0  0  0  0
   11.8510    1.5498   -2.4596 H   0  0  0  0  0  0  0  0  0  0  0  0
   13.6229    0.8833   -4.0445 H   0  0  0  0  0  0  0  0  0  0  0  0
   14.8095    2.5989   -5.3849 H   0  0  0  0  0  0  0  0  0  0  0  0
   14.2195    4.9938   -5.1351 H   0  0  0  0  0  0  0  0  0  0  0  0
   12.4510    5.6817   -3.5571 H   0  0  0  0  0  0  0  0  0  0  0  0
    9.8463    2.7290    0.9984 H   0  0  0  0  0  0  0  0  0  0  0  0
    5.0587    4.7763    2.2117 H   0  0  0  0  0  0  0  0  0  0  0  0
    6.3629    4.6557    1.0218 H   0  0  0  0  0  0  0  0  0  0  0  0
    4.2631    3.6709    0.1357 H   0  0  0  0  0  0  0  0  0  0  0  0
    5.5881    2.5137    0.2175 H   0  0  0  0  0  0  0  0  0  0  0  0
    3.3190    2.8262    2.2436 H   0  0  0  0  0  0  0  0  0  0  0  0
    4.9507    0.2630   -0.0675 H   0  0  0  0  0  0  0  0  0  0  0  0
    3.6356   -1.3285   -1.3901 H   0  0  0  0  0  0  0  0  0  0  0  0
    1.1834   -1.3788   -1.2274 H   0  0  0  0  0  0  0  0  0  0  0  0
   -0.9061   -0.1349   -0.5394 H   0  0  0  0  0  0  0  0  0  0  0  0
   -0.8315    1.1315    0.7018 H   0  0  0  0  0  0  0  0  0  0  0  0
   -0.3596   -0.5798    2.3258 H   0  0  0  0  0  0  0  0  0  0  0  0
   -0.4437   -1.7547    1.1701 H   0  0  0  0  0  0  0  0  0  0  0  0
   -1.8053   -0.8759    1.5525 H   0  0  0  0  0  0  0  0  0  0  0  0
    1.3355    1.8512    1.6524 H   0  0  0  0  0  0  0  0  0  0  0  0
    4.2582    0.8871    3.4464 H   0  0  0  0  0  0  0  0  0  0  0  0
    5.5881    0.7718    2.2953 H   0  0  0  0  0  0  0  0  0  0  0  0
    6.3242    1.9790    4.3076 H   0  0  0  0  0  0  0  0  0  0  0  0
    5.0163    3.1494    4.1414 H   0  0  0  0  0  0  0  0  0  0  0  0
 31  1  1  0
  1  2  2  0
  2  3  1  0
  3 32  1  0
  3  4  2  0
  4  5  1  0
  5 33  1  0
  5 34  1  0
  5  6  1  0
  6 35  1  0
  6 36  1  0
  6  7  1  0
  7  8  2  0
  8 37  1  0
  8  9  1  0
  9 38  1  0
  9 10  2  0
 10 39  1  0
 10 11  1  0
 11 40  1  0
  7 12  1  0
 11 12  2  0
 12 41  1  0
  4 13  1  0
 13 42  1  0
  1 14  1  0
 13 14  2  0
 14 15  1  0
 15 16  2  0
 15 17  1  0
 17 18  1  0
 18 43  1  0
 18 44  1  0
 18 19  1  0
 19 45  1  0
 19 46  1  0
 19 20  1  0
 20 47  1  0
 20 21  1  0
 21 22  2  0
 22 48  1  0
 22 23  1  0
 23 49  1  0
 23 24  2  0
 24 50  1  0
 24 25  1  0
 25 26  1  0
 26 51  1  0
 26 52  1  0
 26 27  1  0
 27 53  1  0
 27 54  1  0
 27 55  1  0
 21 28  1  0
 25 28  2  0
 28 56  1  0
 20 29  1  0
 29 57  1  0
 29 58  1  0
 17 30  1  0
 29 30  1  0
 30 59  1  0
 30 60  1  0
M  CHG  1  27   1
M  END
>  <conformer_energy>  (1) 
63.15

>  <ligand_smiles>  (1) 
[NH3+]Cc1cccc(C2CCN(C(=O)c3cncc(CCc4ccccc4)c3)CC2)c1

>  <ligand_conf_name>  (1) 
2BM2 - prepared_ligand4_conf_0

>  <ligand_molecule_name>  (1) 
2BM2 - prepared_ligand4

>  <fragInfo>  (1) 
17 18 19 20 29 30 43 44 45 46 47 57 58 59 60
1 2 3 4 13 14 31 32 42
5 33 34
6 35 36
7 8 9 10 11 12 37 38 39 40 41
15 16
21 22 23 24 25 28 48 49 50 56
26 27 51 52 53 54 55


>  <torsionInfo>  (1) 
15 17 5 0
20 21 0 6
4 5 1 2
14 15 1 5
5 6 2 3
6 7 3 4
25 26 6 7


>  <atomInfo>  (1) 
1  0.039538  A 
2  -0.263614 NA
3  0.030001  A 
4  -0.028518 A 
5  -0.022273 C 
6  -0.023768 C 
7  -0.047689 A 
8  -0.059033 A 
9  -0.061994 A 
10 -0.062249 A 
11 -0.061994 A 
12 -0.059033 A 
13 -0.043120 A 
14 0.058121  A 
15 0.254926  C 
16 -0.269024 OA
17 -0.338558 N 
18 0.021368  C 
19 -0.028442 C 
20 -0.012820 C 
21 -0.044284 A 
22 -0.058733 A 
23 -0.061490 A 
24 -0.053397 A 
25 0.006297  A 
26 0.099687  C 
27 -0.353808 N 
28 -0.049910 A 
29 -0.028442 C 
30 0.021368  C 
31 0.084839  H 
32 0.084279  H 
33 0.031992  H 
34 0.031992  H 
35 0.031936  H 
36 0.031936  H 
37 0.062561  H 
38 0.062279  H 
39 0.062269  H 
40 0.062279  H 
41 0.062561  H 
42 0.063511  H 
43 0.049412  H 
44 0.049412  H 
45 0.029094  H 
46 0.029094  H 
47 0.035355  H 
48 0.062571  H 
49 0.062293  H 
50 0.062785  H 
51 0.097728  H 
52 0.097728  H 
53 0.344295  HD
54 0.344295  HD
55 0.344295  HD
56 0.063087  H 
57 0.029094  H 
58 0.029094  H 
59 0.049412  H 
60 0.049412  H 


$$$$
