MOL_0_isomer_0_conf_0
     RDKit          3D

 21 21  0  0  0  0  0  0  0  0999 V2000
    0.0801    1.1008    0.1276 C   0  0  0  0  0  0  0  0  0  0  0  0
   -0.5413    0.4367   -0.8621 C   0  0  0  0  0  0  0  0  0  0  0  0
   -0.0284   -0.7549   -1.3828 O   0  0  0  0  0  0  0  0  0  0  0  0
    1.2145   -0.6877   -1.9768 C   0  0  0  0  0  0  0  0  0  0  0  0
    1.4591    0.1901   -3.0335 C   0  0  0  0  0  0  0  0  0  0  0  0
    2.7162    0.2148   -3.6342 C   0  0  0  0  0  0  0  0  0  0  0  0
    3.7218   -0.6463   -3.1845 C   0  0  0  0  0  0  0  0  0  0  0  0
    3.4895   -1.5535   -2.1339 C   0  0  0  0  0  0  0  0  0  0  0  0
    4.5897   -2.4862   -1.6622 C   0  0  0  0  0  0  0  0  0  0  0  0
    4.3242   -3.2784   -0.7023 O   0  0  0  0  0  0  0  0  0  0  0  0
    5.7130   -2.4123   -2.2607 O   0  0  0  0  0  1  0  0  0  0  0  0
    2.2124   -1.5663   -1.5415 C   0  0  0  0  0  0  0  0  0  0  0  0
   -1.9201    0.9254   -1.4211 C   0  0  0  0  0  0  0  0  0  0  0  0
   -2.2487    0.4780   -2.5589 O   0  0  0  0  0  0  0  0  0  0  0  0
   -2.5541    1.7433   -0.6845 O   0  0  0  0  0  1  0  0  0  0  0  0
    1.0170    0.7440    0.5366 H   0  0  0  0  0  0  0  0  0  0  0  0
   -0.3546    2.0058    0.5377 H   0  0  0  0  0  0  0  0  0  0  0  0
    0.6631    0.8392   -3.3882 H   0  0  0  0  0  0  0  0  0  0  0  0
    2.9122    0.8973   -4.4539 H   0  0  0  0  0  0  0  0  0  0  0  0
    4.7029   -0.6250   -3.6555 H   0  0  0  0  0  0  0  0  0  0  0  0
    2.0037   -2.2611   -0.7315 H   0  0  0  0  0  0  0  0  0  0  0  0
 16  1  1  0
  1 17  1  0
  1  2  2  0
  2  3  1  0
  3  4  1  0
  4  5  2  0
  5 18  1  0
  5  6  1  0
  6 19  1  0
  6  7  2  0
  7 20  1  0
  7  8  1  0
  8  9  1  0
  9 10  2  0
  9 11  1  0
  4 12  1  0
  8 12  2  0
 12 21  1  0
  2 13  1  0
 13 14  2  0
 13 15  1  0
M  CHG  2  11  -1  15  -1
M  END
>  <conformer_energy>  (1) 
117.48

>  <ligand_smiles>  (1) 
C=C(Oc1cccc(C(=O)[O-])c1)C(=O)[O-]

>  <ligand_conf_name>  (1) 
MOL_0_isomer_0_conf_0

>  <ligand_molecule_name>  (1) 
MOL_0_isomer_0

$$$$
