MOL_0_isomer_0_conf_0
     RDKit          3D

 58 62  0  0  0  0  0  0  0  0999 V2000
    2.1224   -1.1360    0.4965 C   0  0  0  0  0  0  0  0  0  0  0  0
    3.4800   -1.1181    0.2477 C   0  0  0  0  0  0  0  0  0  0  0  0
    4.2590   -2.1706    0.7365 N   0  0  0  0  0  0  0  0  0  0  0  0
    5.5558   -2.5875    0.4446 C   0  0  0  0  0  0  0  0  0  0  0  0
    6.0841   -3.4321    1.3606 N   0  0  0  0  0  0  0  0  0  0  0  0
    7.3450   -3.9148    1.2024 C   0  0  0  0  0  0  0  0  0  0  0  0
    8.0988   -3.5531    0.0886 C   0  0  0  0  0  0  0  0  0  0  0  0
    9.3910   -3.8272   -0.4001 C   0  0  0  0  0  0  0  0  0  0  0  0
    9.6446   -3.2098   -1.5553 N   0  0  0  0  0  0  0  0  0  0  0  0
    8.4997   -2.5445   -1.8248 N   0  0  0  0  0  0  0  0  0  0  0  0
    8.4063   -1.7334   -3.0363 C   0  0  0  0  0  0  0  0  0  0  0  0
    9.2207   -0.4485   -2.8963 C   0  0  0  0  0  0  0  0  0  0  0  0
    8.8092   -2.5168   -4.2866 C   0  0  0  0  0  0  0  0  0  0  0  0
    7.5355   -2.7032   -0.8563 C   0  0  0  0  0  0  0  0  0  0  0  0
    6.2411   -2.1983   -0.7029 C   0  0  0  0  0  0  0  0  0  0  0  0
    4.0290   -0.1396   -0.4880 N   0  0  0  0  0  0  0  0  0  0  0  0
    3.2533    0.8382   -0.9648 C   0  0  0  0  0  0  0  0  0  0  0  0
    3.8312    1.8263   -1.6922 N   0  0  0  0  0  0  0  0  0  0  0  0
    5.2494    1.8559   -2.0079 C   0  0  0  0  0  0  0  0  0  0  0  0
    5.4589    3.2498   -2.5941 C   0  0  0  0  0  0  0  0  0  0  0  0
    4.1446    3.5094   -3.2993 C   0  0  0  0  0  0  0  0  0  0  0  0
    3.9248    4.8259   -3.4798 F   0  0  0  0  0  0  0  0  0  0  0  0
    4.1439    2.9195   -4.5185 F   0  0  0  0  0  0  0  0  0  0  0  0
    3.0933    2.8674   -2.3914 C   0  0  0  0  0  0  0  0  0  0  0  0
    1.9278    0.8847   -0.7527 N   0  0  0  0  0  0  0  0  0  0  0  0
    1.3753   -0.0988   -0.0202 C   0  0  0  0  0  0  0  0  0  0  0  0
   -0.1143   -0.0524    0.1673 C   0  0  2  0  0  0  0  0  0  0  0  0
   -0.8789   -0.5560   -1.0526 C   0  0  0  0  0  0  0  0  0  0  0  0
   -2.2844   -0.0470   -0.8082 C   0  0  0  0  0  0  0  0  0  0  0  0
   -2.0885    1.2842   -0.1472 N   0  0  0  0  0  4  0  0  0  0  0  0
   -0.6620    1.3648    0.3416 C   0  0  0  0  0  0  0  0  0  0  0  0
    1.6729   -1.9420    1.0633 H   0  0  0  0  0  0  0  0  0  0  0  0
    3.9796   -2.5787    1.6180 H   0  0  0  0  0  0  0  0  0  0  0  0
    7.7111   -4.5760    1.9795 H   0  0  0  0  0  0  0  0  0  0  0  0
   10.1604   -4.4487    0.0400 H   0  0  0  0  0  0  0  0  0  0  0  0
    7.3519   -1.4568   -3.1512 H   0  0  0  0  0  0  0  0  0  0  0  0
    9.0875    0.1925   -3.7742 H   0  0  0  0  0  0  0  0  0  0  0  0
   10.2908   -0.6602   -2.7906 H   0  0  0  0  0  0  0  0  0  0  0  0
    8.9061    0.1196   -2.0137 H   0  0  0  0  0  0  0  0  0  0  0  0
    8.6359   -1.9193   -5.1879 H   0  0  0  0  0  0  0  0  0  0  0  0
    8.2240   -3.4386   -4.3755 H   0  0  0  0  0  0  0  0  0  0  0  0
    9.8688   -2.7948   -4.2677 H   0  0  0  0  0  0  0  0  0  0  0  0
    5.7968   -1.5455   -1.4404 H   0  0  0  0  0  0  0  0  0  0  0  0
    5.4898    1.0834   -2.7481 H   0  0  0  0  0  0  0  0  0  0  0  0
    5.8828    1.7137   -1.1252 H   0  0  0  0  0  0  0  0  0  0  0  0
    6.3180    3.2821   -3.2700 H   0  0  0  0  0  0  0  0  0  0  0  0
    5.6143    3.9860   -1.7967 H   0  0  0  0  0  0  0  0  0  0  0  0
    2.6935    3.5959   -1.6778 H   0  0  0  0  0  0  0  0  0  0  0  0
    2.2745    2.4548   -2.9906 H   0  0  0  0  0  0  0  0  0  0  0  0
   -0.3972   -0.6437    1.0498 H   0  0  0  0  0  0  0  0  0  0  0  0
   -0.8468   -1.6463   -1.1494 H   0  0  0  0  0  0  0  0  0  0  0  0
   -0.4800   -0.1285   -1.9817 H   0  0  0  0  0  0  0  0  0  0  0  0
   -2.8308   -0.6756   -0.0976 H   0  0  0  0  0  0  0  0  0  0  0  0
   -2.8685    0.0977   -1.7209 H   0  0  0  0  0  0  0  0  0  0  0  0
   -2.2614    2.0456   -0.8194 H   0  0  0  0  0  0  0  0  0  0  0  0
   -2.7575    1.4184    0.6235 H   0  0  0  0  0  0  0  0  0  0  0  0
   -0.1755    2.1243   -0.2786 H   0  0  0  0  0  0  0  0  0  0  0  0
   -0.6791    1.6932    1.3854 H   0  0  0  0  0  0  0  0  0  0  0  0
 32  1  1  0
  1  2  2  0
  2  3  1  0
  3 33  1  0
  3  4  1  0
  4  5  2  0
  5  6  1  0
  6 34  1  0
  6  7  2  0
  7  8  1  0
  8 35  1  0
  8  9  2  0
  9 10  1  0
 10 11  1  0
 11 36  1  0
 11 12  1  0
 12 37  1  0
 12 38  1  0
 12 39  1  0
 11 13  1  0
 13 40  1  0
 13 41  1  0
 13 42  1  0
  7 14  1  0
 10 14  1  0
  4 15  1  0
 14 15  2  0
 15 43  1  0
  2 16  1  0
 16 17  2  0
 17 18  1  0
 18 19  1  0
 19 44  1  0
 19 45  1  0
 19 20  1  0
 20 46  1  0
 20 47  1  0
 20 21  1  0
 21 22  1  0
 21 23  1  0
 18 24  1  0
 21 24  1  0
 24 48  1  0
 24 49  1  0
 17 25  1  0
  1 26  1  0
 25 26  2  0
 26 27  1  0
 27 50  1  1
 27 28  1  0
 28 51  1  0
 28 52  1  0
 28 29  1  0
 29 53  1  0
 29 54  1  0
 29 30  1  0
 30 55  1  0
 30 56  1  0
 27 31  1  0
 30 31  1  0
 31 57  1  0
 31 58  1  0
M  CHG  1  30   1
M  END
>  <conformer_energy>  (1) 
-66.94

>  <ligand_smiles>  (1) 
CC(C)n1ncc2cnc(Nc3cc([C@@H]4CC[NH2+]C4)nc(N4CCC(F)(F)C4)n3)cc21

>  <ligand_conf_name>  (1) 
MOL_0_isomer_0_conf_0

>  <ligand_molecule_name>  (1) 
MOL_0_isomer_0

$$$$
