MOL_0_isomer_0_conf_0
     RDKit          3D

 70 75  0  0  0  0  0  0  0  0999 V2000
    3.4642   -4.0446    1.2868 C   0  0  0  0  0  0  0  0  0  0  0  0
    2.8699   -3.6467    2.4350 N   0  0  0  0  0  0  0  0  0  0  0  0
    2.9218   -2.3175    2.7119 C   0  0  0  0  0  0  0  0  0  0  0  0
    3.4810   -1.3571    1.8685 C   0  0  0  0  0  0  0  0  0  0  0  0
    3.4438    0.0551    2.2079 C   0  0  0  0  0  0  0  0  0  0  0  0
    4.1705    0.4045    3.2931 N   0  0  0  0  0  0  0  0  0  0  0  0
    4.2880    1.7064    3.6558 C   0  0  0  0  0  0  0  0  0  0  0  0
    5.0972    2.0130    4.8642 C   0  0  0  0  0  0  0  0  0  0  0  0
    5.3581    3.2148    5.2640 N   0  0  0  0  0  0  0  0  0  0  0  0
    6.1285    3.0284    6.4279 O   0  0  0  0  0  0  0  0  0  0  0  0
    6.2304    1.6686    6.5903 C   0  0  0  0  0  0  0  0  0  0  0  0
    6.8345    1.1629    7.5305 O   0  0  0  0  0  0  0  0  0  0  0  0
    5.5942    1.0358    5.6101 N   0  0  0  0  0  2  0  0  0  0  0  0
    3.7048    2.7515    2.9631 C   0  0  0  0  0  0  0  0  0  0  0  0
    2.9279    2.3975    1.8625 C   0  0  0  0  0  0  0  0  0  0  0  0
    2.2510    3.2194    1.0067 N   0  0  0  0  0  0  0  0  0  0  0  0
    1.6509    2.4434    0.1228 C   0  0  0  0  0  0  0  0  0  0  0  0
    0.8515    2.9820   -1.0450 C   0  0  2  0  0  0  0  0  0  0  0  0
    1.7323    3.7754   -1.8597 O   0  0  0  0  0  0  0  0  0  0  0  0
    2.6065    3.0163   -2.6837 C   0  0  0  0  0  0  0  0  0  0  0  0
    3.4685    3.9803   -3.4752 C   0  0  0  0  0  0  0  0  0  0  0  0
   -0.2686    3.9065   -0.6173 C   0  0  0  0  0  0  0  0  0  0  0  0
   -1.2005    4.5037   -1.6479 C   0  0  0  0  0  0  0  0  0  0  0  0
   -1.7242    3.5004   -0.6621 C   0  0  0  0  0  0  0  0  0  0  0  0
    1.8615    1.1064    0.4422 N   0  0  0  0  0  0  0  0  0  0  0  0
    1.1949   -0.0638   -0.1418 C   0  0  2  0  0  0  0  0  0  0  0  0
    1.6968   -0.3395   -1.5639 C   0  0  0  0  0  0  0  0  0  0  0  0
   -0.3571   -0.0673    0.0033 C   0  0  2  0  0  0  0  0  0  0  0  0
   -0.7868    0.1456    1.4699 C   0  0  0  0  0  0  0  0  0  0  0  0
   -2.3029    0.0918    1.6461 C   0  0  0  0  0  0  0  0  0  0  0  0
   -2.8898   -1.2171    1.1115 C   0  0  1  0  0  0  0  0  0  0  0  0
   -4.4099   -1.2291    1.2614 C   0  0  0  0  0  0  0  0  0  0  0  0
   -2.4884   -1.4232   -0.3514 C   0  0  0  0  0  0  0  0  0  0  0  0
   -0.9725   -1.3750   -0.5358 C   0  0  0  0  0  0  0  0  0  0  0  0
    2.7685    1.0623    1.5005 C   0  0  0  0  0  0  0  0  0  0  0  0
    4.0963   -1.8199    0.6972 C   0  0  0  0  0  0  0  0  0  0  0  0
    4.0846   -3.1782    0.4007 C   0  0  0  0  0  0  0  0  0  0  0  0
    4.7971   -3.7602   -1.0484 Cl  0  0  0  0  0  0  0  0  0  0  0  0
    3.4266   -5.1135    1.0995 H   0  0  0  0  0  0  0  0  0  0  0  0
    2.4781   -2.0275    3.6635 H   0  0  0  0  0  0  0  0  0  0  0  0
    3.8323    3.7822    3.2648 H   0  0  0  0  0  0  0  0  0  0  0  0
    0.4343    2.1901   -1.6682 H   0  0  0  0  0  0  0  0  0  0  0  0
    3.2479    2.3703   -2.0753 H   0  0  0  0  0  0  0  0  0  0  0  0
    2.0200    2.3980   -3.3713 H   0  0  0  0  0  0  0  0  0  0  0  0
    4.1476    3.4401   -4.1407 H   0  0  0  0  0  0  0  0  0  0  0  0
    4.0605    4.6084   -2.8009 H   0  0  0  0  0  0  0  0  0  0  0  0
    2.8459    4.6541   -4.0741 H   0  0  0  0  0  0  0  0  0  0  0  0
    0.0534    4.5767    0.1753 H   0  0  0  0  0  0  0  0  0  0  0  0
   -1.0807    4.2012   -2.6814 H   0  0  0  0  0  0  0  0  0  0  0  0
   -1.4793    5.5437   -1.5215 H   0  0  0  0  0  0  0  0  0  0  0  0
   -2.3639    3.8571    0.1378 H   0  0  0  0  0  0  0  0  0  0  0  0
   -2.0067    2.5322   -1.0526 H   0  0  0  0  0  0  0  0  0  0  0  0
    1.5163   -0.9184    0.4524 H   0  0  0  0  0  0  0  0  0  0  0  0
    1.5372   -1.3889   -1.8341 H   0  0  0  0  0  0  0  0  0  0  0  0
    2.7707   -0.1450   -1.6557 H   0  0  0  0  0  0  0  0  0  0  0  0
    1.1794    0.2693   -2.3092 H   0  0  0  0  0  0  0  0  0  0  0  0
   -0.7751    0.7480   -0.5904 H   0  0  0  0  0  0  0  0  0  0  0  0
   -0.4371    1.1170    1.8361 H   0  0  0  0  0  0  0  0  0  0  0  0
   -0.3235   -0.6195    2.1058 H   0  0  0  0  0  0  0  0  0  0  0  0
   -2.5448    0.2020    2.7101 H   0  0  0  0  0  0  0  0  0  0  0  0
   -2.7568    0.9460    1.1280 H   0  0  0  0  0  0  0  0  0  0  0  0
   -2.4856   -2.0484    1.7043 H   0  0  0  0  0  0  0  0  0  0  0  0
   -4.8733   -0.4184    0.6890 H   0  0  0  0  0  0  0  0  0  0  0  0
   -4.8273   -2.1769    0.9057 H   0  0  0  0  0  0  0  0  0  0  0  0
   -4.6974   -1.1094    2.3112 H   0  0  0  0  0  0  0  0  0  0  0  0
   -2.8630   -2.3899   -0.7087 H   0  0  0  0  0  0  0  0  0  0  0  0
   -2.9522   -0.6518   -0.9797 H   0  0  0  0  0  0  0  0  0  0  0  0
   -0.7579   -1.4837   -1.6047 H   0  0  0  0  0  0  0  0  0  0  0  0
   -0.5187   -2.2359   -0.0287 H   0  0  0  0  0  0  0  0  0  0  0  0
    4.5895   -1.1167    0.0311 H   0  0  0  0  0  0  0  0  0  0  0  0
 39  1  1  0
  1  2  2  0
  2  3  1  0
  3 40  1  0
  3  4  2  0
  4  5  1  0
  5  6  2  0
  6  7  1  0
  7  8  1  0
  8  9  2  0
  9 10  1  0
 10 11  1  0
 11 12  2  0
  8 13  1  0
 11 13  1  0
  7 14  2  0
 14 41  1  0
 14 15  1  0
 15 16  1  0
 16 17  2  0
 17 18  1  0
 18 42  1  6
 18 19  1  0
 19 20  1  0
 20 43  1  0
 20 44  1  0
 20 21  1  0
 21 45  1  0
 21 46  1  0
 21 47  1  0
 18 22  1  0
 22 48  1  0
 22 23  1  0
 23 49  1  0
 23 50  1  0
 22 24  1  0
 23 24  1  0
 24 51  1  0
 24 52  1  0
 17 25  1  0
 25 26  1  0
 26 53  1  1
 26 27  1  0
 27 54  1  0
 27 55  1  0
 27 56  1  0
 26 28  1  0
 28 57  1  6
 28 29  1  0
 29 58  1  0
 29 59  1  0
 29 30  1  0
 30 60  1  0
 30 61  1  0
 30 31  1  0
 31 62  1  1
 31 32  1  0
 32 63  1  0
 32 64  1  0
 32 65  1  0
 31 33  1  0
 33 66  1  0
 33 67  1  0
 28 34  1  0
 33 34  1  0
 34 68  1  0
 34 69  1  0
  5 35  1  0
 15 35  2  0
 25 35  1  0
  4 36  1  0
 36 70  1  0
  1 37  1  0
 36 37  2  0
 37 38  1  0
M  CHG  1  13  -1
M  END
>  <conformer_energy>  (1) 
130.10

>  <ligand_smiles>  (1) 
CCO[C@@H](c1nc2cc(-c3noc(=O)[n-]3)nc(-c3cncc(Cl)c3)c2n1[C@H](C)[C@H]1CC[C@H](C)CC1)C1CC1

>  <ligand_conf_name>  (1) 
MOL_0_isomer_0_conf_0

>  <ligand_molecule_name>  (1) 
MOL_0_isomer_0

$$$$
