1P62 - prepared_ligand2_conf_0
     RDKit          3D

 29 30  0  0  0  0  0  0  0  0999 V2000
   -0.3679   -1.2618    1.5147 O   0  0  0  0  0  0  0  0  0  0  0  0
   -0.0805   -0.8370    0.1886 C   0  0  0  0  0  0  0  0  0  0  0  0
    1.2833   -0.1512    0.0937 C   0  0  1  0  0  0  0  0  0  0  0  0
    1.2127    1.1150    0.7988 O   0  0  0  0  0  0  0  0  0  0  0  0
    2.3340    1.1679    1.7138 C   0  0  1  0  0  0  0  0  0  0  0  0
    2.0158    1.9846    2.8810 N   0  0  0  0  0  0  0  0  0  0  0  0
    0.7217    2.2670    3.2535 C   0  0  0  0  0  0  0  0  0  0  0  0
    0.4625    2.9814    4.3473 C   0  0  0  0  0  0  0  0  0  0  0  0
    1.6377    3.4337    5.1164 C   0  0  0  0  0  0  0  0  0  0  0  0
    1.4613    4.1672    6.2480 N   0  0  0  0  0  0  0  0  0  0  0  0
    2.8575    3.1676    4.7696 N   0  0  0  0  0  0  0  0  0  0  0  0
    3.1036    2.4298    3.6379 C   0  0  0  0  0  0  0  0  0  0  0  0
    4.2540    2.1705    3.2917 O   0  0  0  0  0  0  0  0  0  0  0  0
    2.6801   -0.2882    2.0269 C   0  0  0  0  0  0  0  0  0  0  0  0
    1.8714   -0.7994    2.9861 F   0  0  0  0  0  0  0  0  0  0  0  0
    3.9541   -0.4913    2.4222 F   0  0  0  0  0  0  0  0  0  0  0  0
    2.4290   -0.9707    0.6971 C   0  0  2  0  0  0  0  0  0  0  0  0
    3.5815   -0.8702   -0.1617 O   0  0  0  0  0  0  0  0  0  0  0  0
   -0.4084   -0.4686    2.0778 H   0  0  0  0  0  0  0  0  0  0  0  0
   -0.1049   -1.7219   -0.4547 H   0  0  0  0  0  0  0  0  0  0  0  0
   -0.8802   -0.1579   -0.1246 H   0  0  0  0  0  0  0  0  0  0  0  0
    1.4799    0.0874   -0.9581 H   0  0  0  0  0  0  0  0  0  0  0  0
    3.1639    1.6402    1.1720 H   0  0  0  0  0  0  0  0  0  0  0  0
   -0.0838    1.8994    2.6277 H   0  0  0  0  0  0  0  0  0  0  0  0
   -0.5352    3.2311    4.6755 H   0  0  0  0  0  0  0  0  0  0  0  0
    0.5580    4.4294    6.6127 H   0  0  0  0  0  0  0  0  0  0  0  0
    2.2916    4.4573    6.7503 H   0  0  0  0  0  0  0  0  0  0  0  0
    2.1918   -2.0338    0.7966 H   0  0  0  0  0  0  0  0  0  0  0  0
    4.3520   -1.1729    0.3605 H   0  0  0  0  0  0  0  0  0  0  0  0
 19  1  1  0
  1  2  1  0
  2 20  1  0
  2 21  1  0
  2  3  1  0
  3 22  1  6
  3  4  1  0
  4  5  1  0
  5 23  1  6
  5  6  1  0
  6  7  1  0
  7 24  1  0
  7  8  2  0
  8 25  1  0
  8  9  1  0
  9 10  1  0
 10 26  1  0
 10 27  1  0
  9 11  2  0
  6 12  1  0
 11 12  1  0
 12 13  2  0
  5 14  1  0
 14 15  1  0
 14 16  1  0
  3 17  1  0
 14 17  1  0
 17 28  1  1
 17 18  1  0
 18 29  1  0
M  END
>  <conformer_energy>  (1) 
9.18

>  <ligand_smiles>  (1) 
Nc1ccn([C@@H]2O[C@H](CO)[C@@H](O)C2(F)F)c(=O)n1

>  <ligand_conf_name>  (1) 
1P62 - prepared_ligand2_conf_0

>  <ligand_molecule_name>  (1) 
1P62 - prepared_ligand2

>  <fragInfo>  (1) 
3 4 5 14 15 16 17 18 22 23 28 29
1 2 19 20 21
6 7 8 9 10 11 12 13 24 25 26 27


>  <torsionInfo>  (1) 
2 3 1 0
5 6 0 2


>  <atomInfo>  (1) 
1  -0.393564 OA
2  0.072253  C 
3  0.115410  C 
4  -0.342872 OA
5  0.204781  C 
6  -0.266414 N 
7  0.015230  A 
8  -0.003098 A 
9  0.130163  A 
10 -0.383484 N 
11 -0.176086 NA
12 0.351314  A 
13 -0.245503 OA
14 0.319773  C 
15 -0.198500 F 
16 -0.198500 F 
17 0.150526  C 
18 -0.383802 OA
19 0.210173  HD
20 0.059235  H 
21 0.059235  H 
22 0.065915  H 
23 0.091916  H 
24 0.082203  H 
25 0.067738  H 
26 0.157750  HD
27 0.157750  HD
28 0.069559  H 
29 0.210896  HD


$$$$
