MOL_0_isomer_0_conf_0
     RDKit          3D

 30 31  0  0  0  0  0  0  0  0999 V2000
    3.5816   -5.2493   -0.2914 O   0  0  0  0  0  0  0  0  0  0  0  0
    3.0712   -3.9884   -0.2069 C   0  0  0  0  0  0  0  0  0  0  0  0
    3.3663   -3.1005   -1.2320 C   0  0  0  0  0  0  0  0  0  0  0  0
    2.8643   -1.7987   -1.1876 C   0  0  0  0  0  0  0  0  0  0  0  0
    2.0647   -1.3726   -0.1117 C   0  0  0  0  0  0  0  0  0  0  0  0
    1.5240    0.0668   -0.0837 C   0  0  0  0  0  0  0  0  0  0  0  0
   -0.0068    0.0716    0.0918 C   0  0  0  0  0  0  0  0  0  0  0  0
   -0.6575    0.3437    1.3046 C   0  0  0  0  0  0  0  0  0  0  0  0
   -2.0529    0.3102    1.3911 C   0  0  0  0  0  0  0  0  0  0  0  0
   -2.8120   -0.0039    0.2730 C   0  0  0  0  0  0  0  0  0  0  0  0
   -4.1676   -0.0258    0.4094 O   0  0  0  0  0  0  0  0  0  0  0  0
   -2.1993   -0.2901   -0.9384 C   0  0  0  0  0  0  0  0  0  0  0  0
   -0.8052   -0.2553   -1.0254 C   0  0  0  0  0  0  0  0  0  0  0  0
    2.3934    1.0591    0.7728 C   0  0  0  0  0  0  0  0  0  0  0  0
    4.0706    1.1962    0.0835 Cl  0  0  0  0  0  0  0  0  0  0  0  0
    2.5893    0.5926    2.4994 Cl  0  0  0  0  0  0  0  0  0  0  0  0
    1.7182    2.7374    0.7200 Cl  0  0  0  0  0  0  0  0  0  0  0  0
    1.7760   -2.2935    0.9107 C   0  0  0  0  0  0  0  0  0  0  0  0
    2.2786   -3.5968    0.8649 C   0  0  0  0  0  0  0  0  0  0  0  0
    3.3042   -5.7488    0.4940 H   0  0  0  0  0  0  0  0  0  0  0  0
    3.9868   -3.4205   -2.0645 H   0  0  0  0  0  0  0  0  0  0  0  0
    3.1102   -1.1222   -2.0039 H   0  0  0  0  0  0  0  0  0  0  0  0
    1.6453    0.4474   -1.1123 H   0  0  0  0  0  0  0  0  0  0  0  0
   -0.1149    0.5848    2.2126 H   0  0  0  0  0  0  0  0  0  0  0  0
   -2.5460    0.5276    2.3351 H   0  0  0  0  0  0  0  0  0  0  0  0
   -4.5622   -0.2548   -0.4479 H   0  0  0  0  0  0  0  0  0  0  0  0
   -2.7806   -0.5454   -1.8187 H   0  0  0  0  0  0  0  0  0  0  0  0
   -0.3398   -0.4957   -1.9805 H   0  0  0  0  0  0  0  0  0  0  0  0
    1.1489   -2.0132    1.7548 H   0  0  0  0  0  0  0  0  0  0  0  0
    2.0381   -4.2856    1.6687 H   0  0  0  0  0  0  0  0  0  0  0  0
 20  1  1  0
  1  2  1  0
  2  3  2  0
  3 21  1  0
  3  4  1  0
  4 22  1  0
  4  5  2  0
  5  6  1  0
  6 23  1  0
  6  7  1  0
  7  8  2  0
  8 24  1  0
  8  9  1  0
  9 25  1  0
  9 10  2  0
 10 11  1  0
 11 26  1  0
 10 12  1  0
 12 27  1  0
  7 13  1  0
 12 13  2  0
 13 28  1  0
  6 14  1  0
 14 15  1  0
 14 16  1  0
 14 17  1  0
  5 18  1  0
 18 29  1  0
  2 19  1  0
 18 19  2  0
 19 30  1  0
M  END
>  <conformer_energy>  (1) 
68.44

>  <ligand_smiles>  (1) 
Oc1ccc(C(c2ccc(O)cc2)C(Cl)(Cl)Cl)cc1

>  <ligand_conf_name>  (1) 
MOL_0_isomer_0_conf_0

>  <ligand_molecule_name>  (1) 
MOL_0_isomer_0

$$$$
