MOL_0_isomer_0_conf_0
     RDKit          3D

 35 37  0  0  0  0  0  0  0  0999 V2000
   -1.9641   -0.7351    5.2333 C   0  0  0  0  0  0  0  0  0  0  0  0
   -1.4177   -1.8269    5.8090 N   0  0  0  0  0  0  0  0  0  0  0  0
   -0.5991   -2.5715    5.0319 C   0  0  0  0  0  0  0  0  0  0  0  0
   -0.3075   -2.2716    3.7091 C   0  0  0  0  0  0  0  0  0  0  0  0
    0.7487   -3.3052    2.8168 Cl  0  0  0  0  0  0  0  0  0  0  0  0
   -0.8866   -1.1316    3.1323 C   0  0  0  0  0  0  0  0  0  0  0  0
   -0.5822   -0.8324    1.7808 N   0  0  0  0  0  0  0  0  0  0  0  0
   -1.0063    0.2501    1.0304 C   0  0  0  0  0  0  0  0  0  0  0  0
   -1.7482    1.1482    1.4231 O   0  0  0  0  0  0  0  0  0  0  0  0
   -0.5252    0.2316   -0.4099 C   0  0  0  0  0  0  0  0  0  0  0  0
    0.9184    0.0868   -0.5199 N   0  0  0  0  0  0  0  0  0  0  0  0
    1.5474   -1.0289   -1.0332 C   0  0  0  0  0  0  0  0  0  0  0  0
    2.9130   -0.8346   -0.9528 C   0  0  0  0  0  0  0  0  0  0  0  0
    3.1186    0.4435   -0.3843 C   0  0  0  0  0  0  0  0  0  0  0  0
    4.3229    1.1977   -0.0557 C   0  0  0  0  0  0  0  0  0  0  0  0
    5.4463    0.7479   -0.2611 O   0  0  0  0  0  0  0  0  0  0  0  0
    4.0602    2.4681    0.5122 N   0  0  0  0  0  0  0  0  0  0  0  0
    5.1829    3.3118    0.8836 C   0  0  0  0  0  0  0  0  0  0  0  0
    2.7646    2.9527    0.7335 C   0  0  0  0  0  0  0  0  0  0  0  0
    1.6531    2.2578    0.4284 C   0  0  0  0  0  0  0  0  0  0  0  0
    1.8747    0.9857   -0.1371 C   0  0  0  0  0  0  0  0  0  0  0  0
   -1.7332   -0.3520    3.9190 C   0  0  0  0  0  0  0  0  0  0  0  0
   -2.6181   -0.1505    5.8756 H   0  0  0  0  0  0  0  0  0  0  0  0
   -0.1731   -3.4430    5.5208 H   0  0  0  0  0  0  0  0  0  0  0  0
    0.0645   -1.4842    1.3408 H   0  0  0  0  0  0  0  0  0  0  0  0
   -0.8000    1.1649   -0.9122 H   0  0  0  0  0  0  0  0  0  0  0  0
   -1.0039   -0.6010   -0.9360 H   0  0  0  0  0  0  0  0  0  0  0  0
    0.9820   -1.8696   -1.4157 H   0  0  0  0  0  0  0  0  0  0  0  0
    3.6800   -1.5292   -1.2722 H   0  0  0  0  0  0  0  0  0  0  0  0
    5.1301    3.5229    1.9564 H   0  0  0  0  0  0  0  0  0  0  0  0
    6.1426    2.8352    0.6678 H   0  0  0  0  0  0  0  0  0  0  0  0
    5.1239    4.2501    0.3229 H   0  0  0  0  0  0  0  0  0  0  0  0
    2.6907    3.9430    1.1749 H   0  0  0  0  0  0  0  0  0  0  0  0
    0.6646    2.6643    0.6126 H   0  0  0  0  0  0  0  0  0  0  0  0
   -2.2217    0.5419    3.5519 H   0  0  0  0  0  0  0  0  0  0  0  0
 23  1  1  0
  1  2  2  0
  2  3  1  0
  3 24  1  0
  3  4  2  0
  4  5  1  0
  4  6  1  0
  6  7  1  0
  7 25  1  0
  7  8  1  0
  8  9  2  0
  8 10  1  0
 10 26  1  0
 10 27  1  0
 10 11  1  0
 11 12  1  0
 12 28  1  0
 12 13  2  0
 13 29  1  0
 13 14  1  0
 14 15  1  0
 15 16  2  0
 15 17  1  0
 17 18  1  0
 18 30  1  0
 18 31  1  0
 18 32  1  0
 17 19  1  0
 19 33  1  0
 19 20  2  0
 20 34  1  0
 14 21  2  0
 11 21  1  0
 20 21  1  0
  1 22  1  0
  6 22  2  0
 22 35  1  0
M  END
>  <conformer_energy>  (1) 
62.35

>  <ligand_smiles>  (1) 
Cn1ccc2c(ccn2CC(=O)Nc2ccncc2Cl)c1=O

>  <ligand_conf_name>  (1) 
MOL_0_isomer_0_conf_0

>  <ligand_molecule_name>  (1) 
MOL_0_isomer_0

$$$$
