MOL_0_isomer_0_conf_0
     RDKit          3D

 42 45  0  0  0  0  0  0  0  0999 V2000
    2.1454   -1.7931    1.5216 O   0  0  0  0  0  0  0  0  0  0  0  0
    2.3084   -1.0316    0.3143 C   0  0  1  0  0  0  0  0  0  0  0  0
    1.4706    0.2607    0.3776 C   0  0  0  0  0  0  0  0  0  0  0  0
    0.0680    0.0157    0.0722 N   0  0  0  0  0  0  0  0  0  0  0  0
   -0.8096   -0.6818    0.8821 C   0  0  0  0  0  0  0  0  0  0  0  0
   -0.5483   -1.1775    1.9641 O   0  0  0  0  0  0  0  0  0  0  0  0
   -2.0197   -0.7618    0.2273 N   0  0  0  0  0  0  0  0  0  0  0  0
   -1.9929   -0.0635   -1.0291 C   0  0  0  0  0  0  0  0  0  0  0  0
   -0.5250    0.3104   -1.2152 C   0  0  0  0  0  0  0  0  0  0  0  0
    3.8084   -0.7540    0.1596 C   0  0  0  0  0  0  0  0  0  0  0  0
    4.1686   -0.1700   -1.1228 N   0  0  0  0  0  0  0  0  0  0  0  0
    4.2282   -0.8797   -2.3090 C   0  0  0  0  0  0  0  0  0  0  0  0
    4.0071   -2.2421   -2.5828 C   0  0  0  0  0  0  0  0  0  0  0  0
    4.1283   -2.6746   -3.9056 C   0  0  0  0  0  0  0  0  0  0  0  0
    4.4595   -1.7780   -4.9102 C   0  0  0  0  0  0  0  0  0  0  0  0
    4.5673   -2.2180   -6.1713 F   0  0  0  0  0  0  0  0  0  0  0  0
    4.6844   -0.4301   -4.6402 C   0  0  0  0  0  0  0  0  0  0  0  0
    4.5691    0.0303   -3.3123 C   0  0  0  0  0  0  0  0  0  0  0  0
    4.7382    1.3089   -2.6974 C   0  0  0  0  0  0  0  0  0  0  0  0
    5.0827    2.5830   -3.1942 C   0  0  0  0  0  0  0  0  0  0  0  0
    5.1749    3.6527   -2.3074 C   0  0  0  0  0  0  0  0  0  0  0  0
    5.5009    4.8645   -2.7772 F   0  0  0  0  0  0  0  0  0  0  0  0
    4.9377    3.4930   -0.9510 C   0  0  0  0  0  0  0  0  0  0  0  0
    4.5942    2.2409   -0.4346 C   0  0  0  0  0  0  0  0  0  0  0  0
    4.4970    1.1579   -1.3285 C   0  0  0  0  0  0  0  0  0  0  0  0
    1.1981   -1.7487    1.7823 H   0  0  0  0  0  0  0  0  0  0  0  0
    1.9552   -1.6630   -0.5087 H   0  0  0  0  0  0  0  0  0  0  0  0
    1.5111    0.6733    1.3923 H   0  0  0  0  0  0  0  0  0  0  0  0
    1.8182    1.0211   -0.3256 H   0  0  0  0  0  0  0  0  0  0  0  0
   -2.8146   -1.2252    0.6469 H   0  0  0  0  0  0  0  0  0  0  0  0
   -2.6311    0.8211   -0.9431 H   0  0  0  0  0  0  0  0  0  0  0  0
   -2.3697   -0.7103   -1.8256 H   0  0  0  0  0  0  0  0  0  0  0  0
   -0.3921    1.3667   -1.4655 H   0  0  0  0  0  0  0  0  0  0  0  0
   -0.0424   -0.3146   -1.9735 H   0  0  0  0  0  0  0  0  0  0  0  0
    4.1672   -0.1058    0.9663 H   0  0  0  0  0  0  0  0  0  0  0  0
    4.3815   -1.6842    0.2636 H   0  0  0  0  0  0  0  0  0  0  0  0
    3.7530   -2.9493   -1.7985 H   0  0  0  0  0  0  0  0  0  0  0  0
    3.9664   -3.7188   -4.1568 H   0  0  0  0  0  0  0  0  0  0  0  0
    4.9485    0.2433   -5.4484 H   0  0  0  0  0  0  0  0  0  0  0  0
    5.2796    2.7410   -4.2491 H   0  0  0  0  0  0  0  0  0  0  0  0
    5.0238    4.3522   -0.2920 H   0  0  0  0  0  0  0  0  0  0  0  0
    4.4128    2.1259    0.6295 H   0  0  0  0  0  0  0  0  0  0  0  0
 26  1  1  0
  1  2  1  0
  2 27  1  6
  2  3  1  0
  3 28  1  0
  3 29  1  0
  3  4  1  0
  4  5  1  0
  5  6  2  0
  5  7  1  0
  7 30  1  0
  7  8  1  0
  8 31  1  0
  8 32  1  0
  4  9  1  0
  8  9  1  0
  9 33  1  0
  9 34  1  0
  2 10  1  0
 10 35  1  0
 10 36  1  0
 10 11  1  0
 11 12  1  0
 12 13  2  0
 13 37  1  0
 13 14  1  0
 14 38  1  0
 14 15  2  0
 15 16  1  0
 15 17  1  0
 17 39  1  0
 12 18  1  0
 17 18  2  0
 18 19  1  0
 19 20  1  0
 20 40  1  0
 20 21  2  0
 21 22  1  0
 21 23  1  0
 23 41  1  0
 23 24  2  0
 24 42  1  0
 19 25  2  0
 11 25  1  0
 24 25  1  0
M  END
>  <conformer_energy>  (1) 
-19.21

>  <ligand_smiles>  (1) 
O=C1NCCN1C[C@H](O)Cn1c2ccc(F)cc2c2cc(F)ccc21

>  <ligand_conf_name>  (1) 
MOL_0_isomer_0_conf_0

>  <ligand_molecule_name>  (1) 
MOL_0_isomer_0

$$$$
