MOL_0_isomer_0_conf_0
     RDKit          3D

 52 54  0  0  0  0  0  0  0  0999 V2000
    7.4572    1.4301   -4.2136 O   0  0  0  0  0  0  0  0  0  0  0  0
    7.2737    1.1721   -2.8285 C   0  0  0  0  0  0  0  0  0  0  0  0
    7.8959    2.2533   -2.1404 O   0  0  0  0  0  0  0  0  0  0  0  0
    7.8782   -0.1680   -2.4210 C   0  0  0  0  0  0  0  0  0  0  0  0
    7.0913   -1.3227   -3.0440 C   0  0  1  0  0  0  0  0  0  0  0  0
    7.6358   -2.6657   -2.5761 C   0  0  0  0  0  0  0  0  0  0  0  0
    5.7200   -1.2491   -2.6413 O   0  0  0  0  0  0  0  0  0  0  0  0
    5.0706   -0.0719   -3.1310 C   0  0  1  0  0  0  0  0  0  0  0  0
    3.6656   -0.1547   -2.7736 O   0  0  0  0  0  0  0  0  0  0  0  0
    3.4928   -0.0801   -1.3555 C   0  0  1  0  0  0  0  0  0  0  0  0
    4.0947    1.2298   -0.8330 C   0  0  2  0  0  0  0  0  0  0  0  0
    5.5028    1.2806   -1.0942 O   0  0  0  0  0  0  0  0  0  0  0  0
    5.7297    1.2182   -2.5329 C   0  0  1  0  0  0  0  0  0  0  0  0
    5.1556    2.4087   -3.0953 O   0  0  0  0  0  0  0  0  0  0  0  0
    3.8798    1.3902    0.6816 C   0  0  1  0  0  0  0  0  0  0  0  0
    4.4719    2.7338    1.0739 N   0  0  0  0  0  4  0  0  0  0  0  0
    4.8728    2.8980    2.4964 C   0  0  0  0  0  0  0  0  0  0  0  0
    2.3658    1.3333    1.0255 C   0  0  1  0  0  0  0  0  0  0  0  0
    1.7308    2.5320    0.5607 O   0  0  0  0  0  0  0  0  0  0  0  0
    1.7462    0.0319    0.4546 C   0  0  1  0  0  0  0  0  0  0  0  0
    0.2733   -0.1710    0.7367 N   0  0  0  0  0  4  0  0  0  0  0  0
   -0.7057    0.9181    0.4737 C   0  0  0  0  0  0  0  0  0  0  0  0
    1.9884   -0.1281   -1.0568 C   0  0  2  0  0  0  0  0  0  0  0  0
    1.4146   -1.3806   -1.4381 O   0  0  0  0  0  0  0  0  0  0  0  0
    8.3799    1.2300   -4.4518 H   0  0  0  0  0  0  0  0  0  0  0  0
    8.8543    2.0870   -2.1212 H   0  0  0  0  0  0  0  0  0  0  0  0
    7.8656   -0.2462   -1.3262 H   0  0  0  0  0  0  0  0  0  0  0  0
    8.9289   -0.2225   -2.7311 H   0  0  0  0  0  0  0  0  0  0  0  0
    7.1455   -1.2868   -4.1392 H   0  0  0  0  0  0  0  0  0  0  0  0
    7.0554   -3.4851   -3.0140 H   0  0  0  0  0  0  0  0  0  0  0  0
    7.5505   -2.7677   -1.4885 H   0  0  0  0  0  0  0  0  0  0  0  0
    8.6850   -2.7908   -2.8602 H   0  0  0  0  0  0  0  0  0  0  0  0
    5.1029   -0.0574   -4.2265 H   0  0  0  0  0  0  0  0  0  0  0  0
    3.9850   -0.9524   -0.9064 H   0  0  0  0  0  0  0  0  0  0  0  0
    3.6212    2.0791   -1.3436 H   0  0  0  0  0  0  0  0  0  0  0  0
    5.9015    2.8541   -3.5525 H   0  0  0  0  0  0  0  0  0  0  0  0
    4.4482    0.6249    1.2239 H   0  0  0  0  0  0  0  0  0  0  0  0
    3.8239    3.4972    0.8179 H   0  0  0  0  0  0  0  0  0  0  0  0
    5.3165    2.8848    0.4872 H   0  0  0  0  0  0  0  0  0  0  0  0
    5.6172    2.1344    2.7327 H   0  0  0  0  0  0  0  0  0  0  0  0
    3.9821    2.7932    3.1191 H   0  0  0  0  0  0  0  0  0  0  0  0
    5.3003    3.8974    2.6022 H   0  0  0  0  0  0  0  0  0  0  0  0
    2.2470    1.3298    2.1149 H   0  0  0  0  0  0  0  0  0  0  0  0
    1.6340    2.5784   -0.4104 H   0  0  0  0  0  0  0  0  0  0  0  0
    2.2156   -0.8212    0.9633 H   0  0  0  0  0  0  0  0  0  0  0  0
    0.1209   -0.5218    1.6936 H   0  0  0  0  0  0  0  0  0  0  0  0
    0.0014   -0.9728    0.1300 H   0  0  0  0  0  0  0  0  0  0  0  0
   -0.5511    1.2965   -0.5382 H   0  0  0  0  0  0  0  0  0  0  0  0
   -0.5687    1.6945    1.2285 H   0  0  0  0  0  0  0  0  0  0  0  0
   -1.7039    0.4835    0.5666 H   0  0  0  0  0  0  0  0  0  0  0  0
    1.4651    0.6438   -1.6327 H   0  0  0  0  0  0  0  0  0  0  0  0
    1.7491   -1.5894   -2.3409 H   0  0  0  0  0  0  0  0  0  0  0  0
 25  1  1  0
  1  2  1  0
  2  3  1  0
  3 26  1  0
  2  4  1  0
  4 27  1  0
  4 28  1  0
  4  5  1  0
  5 29  1  6
  5  6  1  0
  6 30  1  0
  6 31  1  0
  6 32  1  0
  5  7  1  0
  7  8  1  0
  8 33  1  6
  8  9  1  0
  9 10  1  0
 10 34  1  1
 10 11  1  0
 11 35  1  6
 11 12  1  0
  2 13  1  0
  8 13  1  0
 12 13  1  0
 13 14  1  6
 14 36  1  0
 11 15  1  0
 15 37  1  1
 15 16  1  0
 16 38  1  0
 16 39  1  0
 16 17  1  0
 17 40  1  0
 17 41  1  0
 17 42  1  0
 15 18  1  0
 18 43  1  1
 18 19  1  0
 19 44  1  0
 18 20  1  0
 20 45  1  1
 20 21  1  0
 21 46  1  0
 21 47  1  0
 21 22  1  0
 22 48  1  0
 22 49  1  0
 22 50  1  0
 10 23  1  0
 20 23  1  0
 23 51  1  6
 23 24  1  0
 24 52  1  0
M  CHG  2  16   1  21   1
M  END
>  <conformer_energy>  (1) 
253.41

>  <ligand_smiles>  (1) 
C[NH2+][C@@H]1[C@H](O)[C@H]([NH2+]C)[C@H]2O[C@]3(O)[C@H](O[C@@H]2[C@H]1O)O[C@H](C)CC3(O)O

>  <ligand_conf_name>  (1) 
MOL_0_isomer_0_conf_0

>  <ligand_molecule_name>  (1) 
MOL_0_isomer_0

$$$$
