MOL_0_isomer_0_conf_0
     RDKit          3D

 49 51  0  0  0  0  0  0  0  0999 V2000
    3.0556    6.3387   -5.8904 C   0  0  0  0  0  0  0  0  0  0  0  0
    3.1568    5.3047   -6.7694 N   0  0  0  0  0  0  0  0  0  0  0  0
    3.0303    4.2544   -5.9905 C   0  0  0  0  0  0  0  0  0  0  0  0
    2.8598    4.6388   -4.6815 N   0  0  0  0  0  0  0  0  0  0  0  0
    2.6897    3.8308   -3.5277 C   0  0  0  0  0  0  0  0  0  0  0  0
    2.5094    4.4428   -2.2798 C   0  0  0  0  0  0  0  0  0  0  0  0
    2.3357    3.6655   -1.1312 C   0  0  0  0  0  0  0  0  0  0  0  0
    2.3331    2.2659   -1.2068 C   0  0  0  0  0  0  0  0  0  0  0  0
    2.1713    1.4502    0.0569 C   0  0  0  0  0  0  0  0  0  0  0  0
    1.2689    0.3086   -0.1045 N   0  0  0  0  0  0  0  0  0  0  0  0
    1.6424   -1.0311   -0.0084 C   0  0  0  0  0  0  0  0  0  0  0  0
    0.7783   -1.9112    0.0458 O   0  0  0  0  0  0  0  0  0  0  0  0
    3.1390   -1.3337    0.0552 C   0  0  0  0  0  0  0  0  0  0  0  0
    3.5009   -3.0880   -0.2796 S   0  0  0  0  0  0  0  0  0  0  0  0
    5.2900   -3.0192   -0.2410 C   0  0  0  0  0  0  0  0  0  0  0  0
    5.9554   -3.0589   -1.4763 C   0  0  0  0  0  0  0  0  0  0  0  0
    7.3501   -3.0084   -1.5385 C   0  0  0  0  0  0  0  0  0  0  0  0
    8.0973   -2.9246   -0.3665 C   0  0  0  0  0  0  0  0  0  0  0  0
    7.4505   -2.8981    0.8695 C   0  0  0  0  0  0  0  0  0  0  0  0
    6.0532   -2.9490    0.9369 C   0  0  0  0  0  0  0  0  0  0  0  0
    5.3369   -2.9278    2.5125 Cl  0  0  0  0  0  0  0  0  0  0  0  0
   -0.1637    0.6104   -0.1968 C   0  0  0  0  0  0  0  0  0  0  0  0
   -0.7650    0.7079    1.2060 C   0  0  0  0  0  0  0  0  0  0  0  0
   -0.8814    1.7782    1.7986 O   0  0  0  0  0  0  0  0  0  0  0  0
   -1.0664   -0.5125    1.7699 N   0  0  0  0  0  0  0  0  0  0  0  0
   -1.6075   -0.6195    3.0971 C   0  0  0  0  0  0  0  0  0  0  0  0
    2.5266    1.6607   -2.4574 C   0  0  0  0  0  0  0  0  0  0  0  0
    2.6980    2.4333   -3.6123 C   0  0  0  0  0  0  0  0  0  0  0  0
    2.8762    5.9946   -4.6151 N   0  0  0  0  0  0  0  0  0  0  0  0
    3.1150    7.3781   -6.1882 H   0  0  0  0  0  0  0  0  0  0  0  0
    3.0531    3.2261   -6.3177 H   0  0  0  0  0  0  0  0  0  0  0  0
    2.4980    5.5278   -2.1828 H   0  0  0  0  0  0  0  0  0  0  0  0
    2.1946    4.1680   -0.1754 H   0  0  0  0  0  0  0  0  0  0  0  0
    3.1630    1.1321    0.3884 H   0  0  0  0  0  0  0  0  0  0  0  0
    1.7638    2.0708    0.8636 H   0  0  0  0  0  0  0  0  0  0  0  0
    3.6620   -0.7386   -0.6985 H   0  0  0  0  0  0  0  0  0  0  0  0
    3.4978   -1.0620    1.0517 H   0  0  0  0  0  0  0  0  0  0  0  0
    5.3914   -3.1344   -2.4045 H   0  0  0  0  0  0  0  0  0  0  0  0
    7.8521   -3.0412   -2.5033 H   0  0  0  0  0  0  0  0  0  0  0  0
    9.1834   -2.8896   -0.4134 H   0  0  0  0  0  0  0  0  0  0  0  0
    8.0424   -2.8447    1.7806 H   0  0  0  0  0  0  0  0  0  0  0  0
   -0.6826   -0.1745   -0.7587 H   0  0  0  0  0  0  0  0  0  0  0  0
   -0.3227    1.5548   -0.7263 H   0  0  0  0  0  0  0  0  0  0  0  0
   -0.7598   -1.3539    1.2800 H   0  0  0  0  0  0  0  0  0  0  0  0
   -0.8881   -0.2048    3.8130 H   0  0  0  0  0  0  0  0  0  0  0  0
   -1.7919   -1.6765    3.3182 H   0  0  0  0  0  0  0  0  0  0  0  0
   -2.5450   -0.0529    3.1523 H   0  0  0  0  0  0  0  0  0  0  0  0
    2.5352    0.5764   -2.5494 H   0  0  0  0  0  0  0  0  0  0  0  0
    2.8347    1.9083   -4.5534 H   0  0  0  0  0  0  0  0  0  0  0  0
 30  1  1  0
  1  2  1  0
  2  3  2  0
  3 31  1  0
  3  4  1  0
  4  5  1  0
  5  6  2  0
  6 32  1  0
  6  7  1  0
  7 33  1  0
  7  8  2  0
  8  9  1  0
  9 34  1  0
  9 35  1  0
  9 10  1  0
 10 11  1  0
 11 12  2  0
 11 13  1  0
 13 36  1  0
 13 37  1  0
 13 14  1  0
 14 15  1  0
 15 16  2  0
 16 38  1  0
 16 17  1  0
 17 39  1  0
 17 18  2  0
 18 40  1  0
 18 19  1  0
 19 41  1  0
 15 20  1  0
 19 20  2  0
 20 21  1  0
 10 22  1  0
 22 42  1  0
 22 43  1  0
 22 23  1  0
 23 24  2  0
 23 25  1  0
 25 44  1  0
 25 26  1  0
 26 45  1  0
 26 46  1  0
 26 47  1  0
  8 27  1  0
 27 48  1  0
  5 28  1  0
 27 28  2  0
 28 49  1  0
  1 29  2  0
  4 29  1  0
M  END
>  <conformer_energy>  (1) 
84.84

>  <ligand_smiles>  (1) 
CNC(=O)CN(Cc1ccc(-n2cncn2)cc1)C(=O)CSc1ccccc1Cl

>  <ligand_conf_name>  (1) 
MOL_0_isomer_0_conf_0

>  <ligand_molecule_name>  (1) 
MOL_0_isomer_0

$$$$
