MOL_0_isomer_0_chiral_N_isomer_0_conf_0
     RDKit          3D

 99102  0  0  0  0  0  0  0  0999 V2000
   -0.7706    8.5123   -1.7346 O   0  0  0  0  0  0  0  0  0  0  0  0
    0.6405    8.5142   -1.4911 C   0  0  2  0  0  0  0  0  0  0  0  0
    1.0619    9.7027   -0.5934 C   0  0  0  0  0  0  0  0  0  0  0  0
    0.4801    9.7107    0.7998 N   0  0  0  0  0  0  0  0  0  0  0  0
    0.6405    8.4536    1.6012 C   0  0  0  0  0  0  0  0  0  0  0  0
    2.0389    8.2376    2.2225 C   0  0  1  0  0  0  0  0  0  0  0  0
    3.1323    7.9113    1.2027 C   0  0  0  0  0  0  0  0  0  0  0  0
    2.4997    9.3769    3.1502 C   0  0  0  0  0  0  0  0  0  0  0  0
    1.7639    9.3855    4.4832 C   0  0  0  0  0  0  0  0  0  0  0  0
   -1.0802   10.4312    0.8630 S   0  0  0  0  0  6  0  0  0  0  0  0
   -1.0726   11.6371    0.0648 O   0  0  0  0  0  0  0  0  0  0  0  0
   -2.0144    9.3535    0.5901 O   0  0  0  0  0  0  0  0  0  0  0  0
   -1.2558   10.9363    2.5487 C   0  0  0  0  0  0  0  0  0  0  0  0
   -2.2257   10.3503    3.3631 C   0  0  0  0  0  0  0  0  0  0  0  0
   -2.3699   10.7932    4.6817 C   0  0  0  0  0  0  0  0  0  0  0  0
   -1.5678   11.8239    5.1872 C   0  0  0  0  0  0  0  0  0  0  0  0
   -1.6960   12.2322    6.5004 N   0  0  0  0  0  0  0  0  0  0  0  0
   -0.5985   12.3964    4.3559 C   0  0  0  0  0  0  0  0  0  0  0  0
   -0.4457   11.9661    3.0347 C   0  0  0  0  0  0  0  0  0  0  0  0
    1.3754    8.5727   -2.8620 C   0  0  1  0  0  0  0  0  0  0  0  0
    2.8276    8.5345   -2.7001 N   0  0  0  0  0  0  0  0  0  0  0  0
    3.6731    9.4371   -3.2581 C   0  0  0  0  0  0  0  0  0  0  0  0
    3.3488   10.4021   -3.9291 O   0  0  0  0  0  0  0  0  0  0  0  0
    4.9432    9.0998   -2.9390 O   0  0  0  0  0  0  0  0  0  0  0  0
    5.9524   10.0154   -3.3971 C   0  0  1  0  0  0  0  0  0  0  0  0
    5.9880   11.2640   -2.5265 C   0  0  0  0  0  0  0  0  0  0  0  0
    6.8056   10.9432   -1.3907 O   0  0  0  0  0  0  0  0  0  0  0  0
    7.6729    9.8705   -1.7540 C   0  0  1  0  0  0  0  0  0  0  0  0
    7.4993    8.7403   -0.8966 O   0  0  0  0  0  0  0  0  0  0  0  0
    7.1794    7.5945   -1.6898 C   0  0  0  0  0  0  0  0  0  0  0  0
    7.4923    7.9436   -3.1307 C   0  0  0  0  0  0  0  0  0  0  0  0
    7.3448    9.4439   -3.1738 C   0  0  1  0  0  0  0  0  0  0  0  0
    0.9142    7.4728   -3.8534 C   0  0  0  0  0  0  0  0  0  0  0  0
    1.2486    6.0593   -3.4223 C   0  0  0  0  0  0  0  0  0  0  0  0
    2.5015    5.5030   -3.7231 C   0  0  0  0  0  0  0  0  0  0  0  0
    2.8387    4.2290   -3.2670 C   0  0  0  0  0  0  0  0  0  0  0  0
    1.9124    3.4956   -2.5330 C   0  0  0  0  0  0  0  0  0  0  0  0
    2.2776    2.2674   -2.0582 O   0  0  0  0  0  0  0  0  0  0  0  0
    1.7076    1.2352   -2.8737 C   0  0  0  0  0  0  0  0  0  0  0  0
    2.2285   -0.3408   -2.1787 P   0  0  0  0  0  5  0  0  0  0  0  0
    3.6741   -0.6870   -2.3910 O   0  0  0  0  0  0  0  0  0  0  0  0
    1.2223   -1.4201   -2.8462 O   0  0  0  0  0  0  0  0  0  0  0  0
    1.5792   -1.9272   -4.1221 C   0  0  0  0  0  0  0  0  0  0  0  0
    0.3897   -2.6668   -4.6974 C   0  0  0  0  0  0  0  0  0  0  0  0
    1.7764   -0.3530   -0.6270 O   0  0  0  0  0  0  0  0  0  0  0  0
    0.4496   -0.0146   -0.2740 C   0  0  0  0  0  0  0  0  0  0  0  0
    0.2362   -0.3577    1.1868 C   0  0  0  0  0  0  0  0  0  0  0  0
    0.6637    4.0303   -2.2244 C   0  0  0  0  0  0  0  0  0  0  0  0
    0.3290    5.3063   -2.6782 C   0  0  0  0  0  0  0  0  0  0  0  0
   -1.2411    8.4978   -0.8771 H   0  0  0  0  0  0  0  0  0  0  0  0
    0.8929    7.5708   -1.0013 H   0  0  0  0  0  0  0  0  0  0  0  0
    0.7954   10.6401   -1.0949 H   0  0  0  0  0  0  0  0  0  0  0  0
    2.1479    9.7530   -0.4917 H   0  0  0  0  0  0  0  0  0  0  0  0
   -0.0748    8.4647    2.4316 H   0  0  0  0  0  0  0  0  0  0  0  0
    0.3597    7.5787    1.0066 H   0  0  0  0  0  0  0  0  0  0  0  0
    1.9457    7.3319    2.8421 H   0  0  0  0  0  0  0  0  0  0  0  0
    2.7729    7.2227    0.4314 H   0  0  0  0  0  0  0  0  0  0  0  0
    3.9751    7.4208    1.7048 H   0  0  0  0  0  0  0  0  0  0  0  0
    3.5359    8.8091    0.7272 H   0  0  0  0  0  0  0  0  0  0  0  0
    2.3862   10.3475    2.6550 H   0  0  0  0  0  0  0  0  0  0  0  0
    3.5691    9.2620    3.3689 H   0  0  0  0  0  0  0  0  0  0  0  0
    0.6833    9.4741    4.3568 H   0  0  0  0  0  0  0  0  0  0  0  0
    2.1046   10.2248    5.0983 H   0  0  0  0  0  0  0  0  0  0  0  0
    1.9630    8.4634    5.0387 H   0  0  0  0  0  0  0  0  0  0  0  0
   -2.8738    9.5609    2.9878 H   0  0  0  0  0  0  0  0  0  0  0  0
   -3.1220   10.3281    5.3163 H   0  0  0  0  0  0  0  0  0  0  0  0
   -1.1606   13.0166    6.8500 H   0  0  0  0  0  0  0  0  0  0  0  0
   -2.4381   11.8710    7.0833 H   0  0  0  0  0  0  0  0  0  0  0  0
    0.0459   13.1902    4.7294 H   0  0  0  0  0  0  0  0  0  0  0  0
    0.3016   12.4316    2.3951 H   0  0  0  0  0  0  0  0  0  0  0  0
    1.1089    9.5292   -3.3331 H   0  0  0  0  0  0  0  0  0  0  0  0
    3.2607    7.7690   -2.1998 H   0  0  0  0  0  0  0  0  0  0  0  0
    5.7844   10.2399   -4.4569 H   0  0  0  0  0  0  0  0  0  0  0  0
    6.4723   12.0944   -3.0522 H   0  0  0  0  0  0  0  0  0  0  0  0
    5.0070   11.5889   -2.1663 H   0  0  0  0  0  0  0  0  0  0  0  0
    8.7103   10.2089   -1.6565 H   0  0  0  0  0  0  0  0  0  0  0  0
    6.1193    7.3606   -1.5449 H   0  0  0  0  0  0  0  0  0  0  0  0
    7.7624    6.7368   -1.3417 H   0  0  0  0  0  0  0  0  0  0  0  0
    6.8648    7.4056   -3.8461 H   0  0  0  0  0  0  0  0  0  0  0  0
    8.5359    7.6803   -3.3418 H   0  0  0  0  0  0  0  0  0  0  0  0
    8.0389    9.9096   -3.8850 H   0  0  0  0  0  0  0  0  0  0  0  0
    1.3866    7.6529   -4.8292 H   0  0  0  0  0  0  0  0  0  0  0  0
   -0.1643    7.5538   -4.0359 H   0  0  0  0  0  0  0  0  0  0  0  0
    3.2283    6.0678   -4.3040 H   0  0  0  0  0  0  0  0  0  0  0  0
    3.8193    3.8127   -3.4828 H   0  0  0  0  0  0  0  0  0  0  0  0
    0.6125    1.2858   -2.8623 H   0  0  0  0  0  0  0  0  0  0  0  0
    2.0702    1.3162   -3.9062 H   0  0  0  0  0  0  0  0  0  0  0  0
    1.8644   -1.1028   -4.7833 H   0  0  0  0  0  0  0  0  0  0  0  0
    2.4300   -2.6065   -4.0111 H   0  0  0  0  0  0  0  0  0  0  0  0
    0.6220   -3.0695   -5.6866 H   0  0  0  0  0  0  0  0  0  0  0  0
   -0.4769   -2.0018   -4.7787 H   0  0  0  0  0  0  0  0  0  0  0  0
    0.0964   -3.4919   -4.0398 H   0  0  0  0  0  0  0  0  0  0  0  0
    0.2992    1.0585   -0.4227 H   0  0  0  0  0  0  0  0  0  0  0  0
   -0.2603   -0.5636   -0.8985 H   0  0  0  0  0  0  0  0  0  0  0  0
   -0.7726   -0.0846    1.5111 H   0  0  0  0  0  0  0  0  0  0  0  0
    0.9632    0.1686    1.8148 H   0  0  0  0  0  0  0  0  0  0  0  0
    0.3859   -1.4286    1.3568 H   0  0  0  0  0  0  0  0  0  0  0  0
   -0.0432    3.4681   -1.6226 H   0  0  0  0  0  0  0  0  0  0  0  0
   -0.6478    5.7204   -2.4318 H   0  0  0  0  0  0  0  0  0  0  0  0
 50  1  1  0
  1  2  1  0
  2 51  1  1
  2  3  1  0
  3 52  1  0
  3 53  1  0
  4  3  1  6
  4  5  1  0
  5 54  1  0
  5 55  1  0
  5  6  1  0
  6 56  1  1
  6  7  1  0
  7 57  1  0
  7 58  1  0
  7 59  1  0
  6  8  1  0
  8 60  1  0
  8 61  1  0
  8  9  1  0
  9 62  1  0
  9 63  1  0
  9 64  1  0
  4 10  1  0
 10 11  2  0
 10 12  2  0
 10 13  1  0
 13 14  2  0
 14 65  1  0
 14 15  1  0
 15 66  1  0
 15 16  2  0
 16 17  1  0
 17 67  1  0
 17 68  1  0
 16 18  1  0
 18 69  1  0
 13 19  1  0
 18 19  2  0
 19 70  1  0
  2 20  1  0
 20 71  1  6
 20 21  1  0
 21 72  1  0
 21 22  1  0
 22 23  2  0
 22 24  1  0
 24 25  1  0
 25 73  1  6
 25 26  1  0
 26 74  1  0
 26 75  1  0
 26 27  1  0
 27 28  1  0
 28 76  1  6
 28 29  1  0
 29 30  1  0
 30 77  1  0
 30 78  1  0
 30 31  1  0
 31 79  1  0
 31 80  1  0
 28 32  1  0
 25 32  1  0
 31 32  1  0
 32 81  1  6
 20 33  1  0
 33 82  1  0
 33 83  1  0
 33 34  1  0
 34 35  2  0
 35 84  1  0
 35 36  1  0
 36 85  1  0
 36 37  2  0
 37 38  1  0
 38 39  1  0
 39 86  1  0
 39 87  1  0
 39 40  1  0
 40 41  2  0
 40 42  1  0
 42 43  1  0
 43 88  1  0
 43 89  1  0
 43 44  1  0
 44 90  1  0
 44 91  1  0
 44 92  1  0
 40 45  1  0
 45 46  1  0
 46 93  1  0
 46 94  1  0
 46 47  1  0
 47 95  1  0
 47 96  1  0
 47 97  1  0
 37 48  1  0
 48 98  1  0
 34 49  1  0
 48 49  2  0
 49 99  1  0
M  END
>  <conformer_energy>  (1) 
-14.38

>  <ligand_smiles>  (1) 
CCOP(=O)(COc1ccc(C[C@H](NC(=O)O[C@H]2CO[C@H]3OCC[C@H]32)[C@H](O)CN(C[C@@H](C)CC)S(=O)(=O)c2ccc(N)cc2)cc1)OCC

>  <ligand_conf_name>  (1) 
MOL_0_isomer_0_chiral_N_isomer_0_conf_0

>  <ligand_molecule_name>  (1) 
MOL_0_isomer_0_chiral_N_isomer_0

$$$$
MOL_0_isomer_0_chiral_N_isomer_1_conf_0
     RDKit          3D

 99102  0  0  0  0  0  0  0  0999 V2000
    1.9143   -9.4445    2.0427 O   0  0  0  0  0  0  0  0  0  0  0  0
    0.7347   -8.6786    1.7532 C   0  0  2  0  0  0  0  0  0  0  0  0
   -0.3345   -8.9349    2.8346 C   0  0  0  0  0  0  0  0  0  0  0  0
   -0.0158   -8.4240    4.2121 N   0  0  0  0  0  0  0  0  0  0  0  0
    0.7595   -9.3737    5.0634 C   0  0  0  0  0  0  0  0  0  0  0  0
   -0.1300  -10.1017    6.0950 C   0  0  1  0  0  0  0  0  0  0  0  0
   -0.8176   -9.1205    7.0488 C   0  0  0  0  0  0  0  0  0  0  0  0
   -1.1760  -11.0537    5.4854 C   0  0  0  0  0  0  0  0  0  0  0  0
   -0.5609  -12.2645    4.7968 C   0  0  0  0  0  0  0  0  0  0  0  0
    0.4371   -6.7803    4.4026 S   0  0  0  0  0  6  0  0  0  0  0  0
    0.1995   -6.3992    5.7780 O   0  0  0  0  0  0  0  0  0  0  0  0
    1.7456   -6.6000    3.8098 O   0  0  0  0  0  0  0  0  0  0  0  0
   -0.7442   -5.9044    3.4075 C   0  0  0  0  0  0  0  0  0  0  0  0
   -0.3098   -5.1346    2.3258 C   0  0  0  0  0  0  0  0  0  0  0  0
   -1.2513   -4.5110    1.5064 C   0  0  0  0  0  0  0  0  0  0  0  0
   -2.6184   -4.6728    1.7411 C   0  0  0  0  0  0  0  0  0  0  0  0
   -3.5484   -4.0212    0.9494 N   0  0  0  0  0  0  0  0  0  0  0  0
   -3.0336   -5.3981    2.8630 C   0  0  0  0  0  0  0  0  0  0  0  0
   -2.1039   -6.0202    3.6984 C   0  0  0  0  0  0  0  0  0  0  0  0
    0.2456   -9.0218    0.3151 C   0  0  1  0  0  0  0  0  0  0  0  0
   -0.9973   -8.3441   -0.0511 N   0  0  0  0  0  0  0  0  0  0  0  0
   -2.2258   -8.9157    0.0555 C   0  0  0  0  0  0  0  0  0  0  0  0
   -2.4425  -10.0165    0.5390 O   0  0  0  0  0  0  0  0  0  0  0  0
   -3.1645   -8.0725   -0.4364 O   0  0  0  0  0  0  0  0  0  0  0  0
   -4.5198   -8.5415   -0.3279 C   0  0  1  0  0  0  0  0  0  0  0  0
   -5.0885   -8.1906    1.0374 C   0  0  0  0  0  0  0  0  0  0  0  0
   -5.5872   -6.8486    0.9328 O   0  0  0  0  0  0  0  0  0  0  0  0
   -5.9534   -6.6233   -0.4272 C   0  0  1  0  0  0  0  0  0  0  0  0
   -5.3668   -5.4210   -0.9316 O   0  0  0  0  0  0  0  0  0  0  0  0
   -4.4347   -5.7670   -1.9598 C   0  0  0  0  0  0  0  0  0  0  0  0
   -4.8531   -7.1251   -2.4774 C   0  0  0  0  0  0  0  0  0  0  0  0
   -5.4541   -7.7890   -1.2636 C   0  0  1  0  0  0  0  0  0  0  0  0
    1.3378   -8.7750   -0.7611 C   0  0  0  0  0  0  0  0  0  0  0  0
    1.7118   -7.3212   -0.9647 C   0  0  0  0  0  0  0  0  0  0  0  0
    1.0680   -6.5490   -1.9439 C   0  0  0  0  0  0  0  0  0  0  0  0
    1.3687   -5.1937   -2.0861 C   0  0  0  0  0  0  0  0  0  0  0  0
    2.3071   -4.6059   -1.2428 C   0  0  0  0  0  0  0  0  0  0  0  0
    2.5830   -3.2726   -1.3681 O   0  0  0  0  0  0  0  0  0  0  0  0
    1.7325   -2.5298   -0.4842 C   0  0  0  0  0  0  0  0  0  0  0  0
    2.0932   -0.7835   -0.7080 P   0  0  0  0  0  5  0  0  0  0  0  0
    1.6525   -0.2085   -2.0227 O   0  0  0  0  0  0  0  0  0  0  0  0
    3.6631   -0.5816   -0.3975 O   0  0  0  0  0  0  0  0  0  0  0  0
    4.1807   -0.8727    0.8871 C   0  0  0  0  0  0  0  0  0  0  0  0
    5.5047   -1.5902    0.7259 C   0  0  0  0  0  0  0  0  0  0  0  0
    1.3832   -0.0688    0.5597 O   0  0  0  0  0  0  0  0  0  0  0  0
   -0.0053    0.2021    0.4564 C   0  0  0  0  0  0  0  0  0  0  0  0
   -0.5439    0.5031    1.8392 C   0  0  0  0  0  0  0  0  0  0  0  0
    2.9942   -5.3658   -0.3022 C   0  0  0  0  0  0  0  0  0  0  0  0
    2.6943   -6.7207   -0.1622 C   0  0  0  0  0  0  0  0  0  0  0  0
    1.6598  -10.3799    2.1268 H   0  0  0  0  0  0  0  0  0  0  0  0
    1.0203   -7.6296    1.7648 H   0  0  0  0  0  0  0  0  0  0  0  0
   -0.5210  -10.0114    2.8944 H   0  0  0  0  0  0  0  0  0  0  0  0
   -1.2910   -8.4859    2.5560 H   0  0  0  0  0  0  0  0  0  0  0  0
    1.2894  -10.1031    4.4430 H   0  0  0  0  0  0  0  0  0  0  0  0
    1.5458   -8.8356    5.6069 H   0  0  0  0  0  0  0  0  0  0  0  0
    0.5440  -10.7120    6.7112 H   0  0  0  0  0  0  0  0  0  0  0  0
   -0.0823   -8.4678    7.5302 H   0  0  0  0  0  0  0  0  0  0  0  0
   -1.3437   -9.6602    7.8435 H   0  0  0  0  0  0  0  0  0  0  0  0
   -1.5526   -8.4972    6.5300 H   0  0  0  0  0  0  0  0  0  0  0  0
   -1.8262  -10.5178    4.7854 H   0  0  0  0  0  0  0  0  0  0  0  0
   -1.8300  -11.4263    6.2834 H   0  0  0  0  0  0  0  0  0  0  0  0
    0.0680  -11.9827    3.9491 H   0  0  0  0  0  0  0  0  0  0  0  0
   -1.3509  -12.9214    4.4202 H   0  0  0  0  0  0  0  0  0  0  0  0
    0.0500  -12.8413    5.4975 H   0  0  0  0  0  0  0  0  0  0  0  0
    0.7500   -5.0239    2.1099 H   0  0  0  0  0  0  0  0  0  0  0  0
   -0.9143   -3.9117    0.6669 H   0  0  0  0  0  0  0  0  0  0  0  0
   -4.4962   -4.3988    0.9283 H   0  0  0  0  0  0  0  0  0  0  0  0
   -3.2607   -3.5717    0.0931 H   0  0  0  0  0  0  0  0  0  0  0  0
   -4.0949   -5.4858    3.0872 H   0  0  0  0  0  0  0  0  0  0  0  0
   -2.4409   -6.5966    4.5566 H   0  0  0  0  0  0  0  0  0  0  0  0
    0.0493  -10.1025    0.2954 H   0  0  0  0  0  0  0  0  0  0  0  0
   -0.9800   -7.3806   -0.3629 H   0  0  0  0  0  0  0  0  0  0  0  0
   -4.5565   -9.6170   -0.5334 H   0  0  0  0  0  0  0  0  0  0  0  0
   -5.9358   -8.8369    1.2881 H   0  0  0  0  0  0  0  0  0  0  0  0
   -4.3540   -8.2313    1.8454 H   0  0  0  0  0  0  0  0  0  0  0  0
   -7.0414   -6.5147   -0.4831 H   0  0  0  0  0  0  0  0  0  0  0  0
   -3.4299   -5.7843   -1.5262 H   0  0  0  0  0  0  0  0  0  0  0  0
   -4.4534   -5.0013   -2.7406 H   0  0  0  0  0  0  0  0  0  0  0  0
   -4.0356   -7.6823   -2.9435 H   0  0  0  0  0  0  0  0  0  0  0  0
   -5.6363   -6.9904   -3.2332 H   0  0  0  0  0  0  0  0  0  0  0  0
   -6.2901   -8.4466   -1.5315 H   0  0  0  0  0  0  0  0  0  0  0  0
    0.9849   -9.1779   -1.7205 H   0  0  0  0  0  0  0  0  0  0  0  0
    2.2424   -9.3489   -0.5239 H   0  0  0  0  0  0  0  0  0  0  0  0
    0.3290   -6.9990   -2.6035 H   0  0  0  0  0  0  0  0  0  0  0  0
    0.8749   -4.6002   -2.8504 H   0  0  0  0  0  0  0  0  0  0  0  0
    0.6793   -2.6999   -0.7325 H   0  0  0  0  0  0  0  0  0  0  0  0
    1.9089   -2.8216    0.5566 H   0  0  0  0  0  0  0  0  0  0  0  0
    4.3241    0.0713    1.4211 H   0  0  0  0  0  0  0  0  0  0  0  0
    3.4900   -1.4897    1.4685 H   0  0  0  0  0  0  0  0  0  0  0  0
    5.9471   -1.8171    1.7001 H   0  0  0  0  0  0  0  0  0  0  0  0
    6.2081   -0.9783    0.1512 H   0  0  0  0  0  0  0  0  0  0  0  0
    5.3695   -2.5253    0.1732 H   0  0  0  0  0  0  0  0  0  0  0  0
   -0.1512    1.0612   -0.2052 H   0  0  0  0  0  0  0  0  0  0  0  0
   -0.5253   -0.6628    0.0328 H   0  0  0  0  0  0  0  0  0  0  0  0
   -1.6140    0.7263    1.8017 H   0  0  0  0  0  0  0  0  0  0  0  0
   -0.0192    1.3572    2.2800 H   0  0  0  0  0  0  0  0  0  0  0  0
   -0.3839   -0.3495    2.5076 H   0  0  0  0  0  0  0  0  0  0  0  0
    3.7539   -4.9111    0.3271 H   0  0  0  0  0  0  0  0  0  0  0  0
    3.2251   -7.3028    0.5911 H   0  0  0  0  0  0  0  0  0  0  0  0
 50  1  1  0
  1  2  1  0
  2 51  1  6
  2  3  1  0
  3 52  1  0
  3 53  1  0
  4  3  1  6
  4  5  1  0
  5 54  1  0
  5 55  1  0
  5  6  1  0
  6 56  1  1
  6  7  1  0
  7 57  1  0
  7 58  1  0
  7 59  1  0
  6  8  1  0
  8 60  1  0
  8 61  1  0
  8  9  1  0
  9 62  1  0
  9 63  1  0
  9 64  1  0
  4 10  1  0
 10 11  2  0
 10 12  2  0
 10 13  1  0
 13 14  2  0
 14 65  1  0
 14 15  1  0
 15 66  1  0
 15 16  2  0
 16 17  1  0
 17 67  1  0
 17 68  1  0
 16 18  1  0
 18 69  1  0
 13 19  1  0
 18 19  2  0
 19 70  1  0
  2 20  1  0
 20 71  1  1
 20 21  1  0
 21 72  1  0
 21 22  1  0
 22 23  2  0
 22 24  1  0
 24 25  1  0
 25 73  1  6
 25 26  1  0
 26 74  1  0
 26 75  1  0
 26 27  1  0
 27 28  1  0
 28 76  1  1
 28 29  1  0
 29 30  1  0
 30 77  1  0
 30 78  1  0
 30 31  1  0
 31 79  1  0
 31 80  1  0
 28 32  1  0
 25 32  1  0
 31 32  1  0
 32 81  1  6
 20 33  1  0
 33 82  1  0
 33 83  1  0
 33 34  1  0
 34 35  2  0
 35 84  1  0
 35 36  1  0
 36 85  1  0
 36 37  2  0
 37 38  1  0
 38 39  1  0
 39 86  1  0
 39 87  1  0
 39 40  1  0
 40 41  2  0
 40 42  1  0
 42 43  1  0
 43 88  1  0
 43 89  1  0
 43 44  1  0
 44 90  1  0
 44 91  1  0
 44 92  1  0
 40 45  1  0
 45 46  1  0
 46 93  1  0
 46 94  1  0
 46 47  1  0
 47 95  1  0
 47 96  1  0
 47 97  1  0
 37 48  1  0
 48 98  1  0
 34 49  1  0
 48 49  2  0
 49 99  1  0
M  END
>  <conformer_energy>  (2) 
-16.05

>  <ligand_smiles>  (2) 
CCOP(=O)(COc1ccc(C[C@H](NC(=O)O[C@H]2CO[C@H]3OCC[C@H]32)[C@H](O)CN(C[C@@H](C)CC)S(=O)(=O)c2ccc(N)cc2)cc1)OCC

>  <ligand_conf_name>  (2) 
MOL_0_isomer_0_chiral_N_isomer_1_conf_0

>  <ligand_molecule_name>  (2) 
MOL_0_isomer_0_chiral_N_isomer_1

$$$$
