MOL_0_isomer_0_conf_0
     RDKit          3D

 64 66  0  0  0  0  0  0  0  0999 V2000
    2.6495   -8.8275   -1.0884 O   0  0  0  0  0  0  0  0  0  0  0  0
    1.6980   -8.0088   -1.7982 C   0  0  1  0  0  0  0  0  0  0  0  0
    1.4267   -8.5947   -3.1654 C   0  0  1  0  0  0  0  0  0  0  0  0
    2.5471   -9.3410   -3.6496 O   0  0  0  0  0  0  0  0  0  0  0  0
    0.1799   -9.4502   -2.9270 C   0  0  2  0  0  0  0  0  0  0  0  0
   -0.7024   -9.5199   -4.1013 N   0  0  0  0  0  0  0  0  0  0  0  0
   -1.4247   -8.3991   -4.4821 C   0  0  0  0  0  0  0  0  0  0  0  0
   -2.2329   -8.3962   -5.5443 C   0  0  0  0  0  0  0  0  0  0  0  0
   -2.3542   -9.6258   -6.3382 C   0  0  0  0  0  0  0  0  0  0  0  0
   -3.0903   -9.6794   -7.3203 O   0  0  0  0  0  0  0  0  0  0  0  0
   -1.6039  -10.6842   -5.9109 N   0  0  0  0  0  0  0  0  0  0  0  0
   -0.7735  -10.7053   -4.8145 C   0  0  0  0  0  0  0  0  0  0  0  0
   -0.1743  -11.7432   -4.5389 O   0  0  0  0  0  0  0  0  0  0  0  0
   -0.5589   -8.8516   -1.8520 O   0  0  0  0  0  0  0  0  0  0  0  0
    0.3464   -8.0347   -1.0721 C   0  0  2  0  0  0  0  0  0  0  0  0
   -0.2494   -6.6335   -0.9123 C   0  0  0  0  0  0  0  0  0  0  0  0
    0.0139   -6.0736    0.3645 O   0  0  0  0  0  0  0  0  0  0  0  0
    1.5271   -5.6921    0.8075 P   0  0  1  0  0  5  0  0  0  0  0  0
    1.4674   -5.0282    2.1661 O   0  0  0  0  0  0  0  0  0  0  0  0
    2.3829   -6.9406    0.6532 O   0  0  0  0  0  1  0  0  0  0  0  0
    1.9849   -4.6406   -0.3030 O   0  0  0  0  0  0  0  0  0  0  0  0
    1.2179   -3.4923   -1.0913 P   0  0  2  0  0  5  0  0  0  0  0  0
    0.0264   -2.9341   -0.3491 O   0  0  0  0  0  0  0  0  0  0  0  0
    1.0582   -3.9030   -2.5390 O   0  0  0  0  0  1  0  0  0  0  0  0
    2.3630   -2.3411   -1.0707 O   0  0  0  0  0  0  0  0  0  0  0  0
    2.6995   -1.7689    0.1809 C   0  0  1  0  0  0  0  0  0  0  0  0
    4.1214   -1.5191    0.2293 O   0  0  0  0  0  0  0  0  0  0  0  0
    4.5666   -0.6949   -0.8545 C   0  0  2  0  0  0  0  0  0  0  0  0
    6.0880   -0.6114   -0.7532 C   0  0  0  0  0  0  0  0  0  0  0  0
    3.9020    0.6943   -0.7820 C   0  0  1  0  0  0  0  0  0  0  0  0
    4.2810    1.5933   -1.9024 N   0  0  0  0  0  0  0  0  0  0  0  0
    2.3589    0.5753   -0.6904 C   0  0  2  0  0  0  0  0  0  0  0  0
    1.8635    1.9142   -0.4489 O   0  0  0  0  0  0  0  0  0  0  0  0
    1.9482   -0.4237    0.4172 C   0  0  1  0  0  0  0  0  0  0  0  0
    0.4962   -0.6138    0.5053 N   0  0  0  0  0  0  0  0  0  0  0  0
   -0.4156    0.2571    1.0094 C   0  0  0  0  0  0  0  0  0  0  0  0
   -0.1405    1.4091    1.3356 O   0  0  0  0  0  0  0  0  0  0  0  0
   -1.8026   -0.3093    1.1082 C   0  0  0  0  0  0  0  0  0  0  0  0
    2.8177   -8.2370   -0.2957 H   0  0  0  0  0  0  0  0  0  0  0  0
    2.1478   -7.0158   -1.8920 H   0  0  0  0  0  0  0  0  0  0  0  0
    1.2205   -7.7884   -3.8761 H   0  0  0  0  0  0  0  0  0  0  0  0
    3.0545   -9.5578   -2.8308 H   0  0  0  0  0  0  0  0  0  0  0  0
    0.4656  -10.4609   -2.6153 H   0  0  0  0  0  0  0  0  0  0  0  0
   -1.3062   -7.5017   -3.8771 H   0  0  0  0  0  0  0  0  0  0  0  0
   -2.7970   -7.5258   -5.8480 H   0  0  0  0  0  0  0  0  0  0  0  0
   -1.6702  -11.5375   -6.4431 H   0  0  0  0  0  0  0  0  0  0  0  0
    0.4304   -8.5216   -0.0921 H   0  0  0  0  0  0  0  0  0  0  0  0
   -1.3432   -6.6656   -1.0296 H   0  0  0  0  0  0  0  0  0  0  0  0
    0.1114   -5.9699   -1.7028 H   0  0  0  0  0  0  0  0  0  0  0  0
    2.4724   -2.4633    0.9973 H   0  0  0  0  0  0  0  0  0  0  0  0
    4.3278   -1.1848   -1.8093 H   0  0  0  0  0  0  0  0  0  0  0  0
    6.3983   -0.1948    0.2100 H   0  0  0  0  0  0  0  0  0  0  0  0
    6.5184   -0.0063   -1.5559 H   0  0  0  0  0  0  0  0  0  0  0  0
    6.5187   -1.6153   -0.8137 H   0  0  0  0  0  0  0  0  0  0  0  0
    4.2404    1.1976    0.1347 H   0  0  0  0  0  0  0  0  0  0  0  0
    4.0902    1.1080   -2.7792 H   0  0  0  0  0  0  0  0  0  0  0  0
    3.6286    2.3835   -1.8524 H   0  0  0  0  0  0  0  0  0  0  0  0
    1.9384    0.2497   -1.6508 H   0  0  0  0  0  0  0  0  0  0  0  0
    0.9981    1.8022   -0.0049 H   0  0  0  0  0  0  0  0  0  0  0  0
    2.2625   -0.0014    1.3809 H   0  0  0  0  0  0  0  0  0  0  0  0
    0.1474   -1.5520    0.2276 H   0  0  0  0  0  0  0  0  0  0  0  0
   -2.1607   -0.5928    0.1134 H   0  0  0  0  0  0  0  0  0  0  0  0
   -2.4764    0.4395    1.5338 H   0  0  0  0  0  0  0  0  0  0  0  0
   -1.7966   -1.1901    1.7617 H   0  0  0  0  0  0  0  0  0  0  0  0
 39  1  1  0
  1  2  1  0
  2 40  1  6
  2  3  1  0
  3 41  1  6
  3  4  1  0
  4 42  1  0
  3  5  1  0
  5 43  1  1
  5  6  1  0
  6  7  1  0
  7 44  1  0
  7  8  2  0
  8 45  1  0
  8  9  1  0
  9 10  2  0
  9 11  1  0
 11 46  1  0
  6 12  1  0
 11 12  1  0
 12 13  2  0
  5 14  1  0
  2 15  1  0
 14 15  1  0
 15 47  1  1
 15 16  1  0
 16 48  1  0
 16 49  1  0
 16 17  1  0
 17 18  1  0
 18 19  2  0
 18 20  1  1
 18 21  1  0
 21 22  1  0
 22 23  2  0
 22 24  1  6
 22 25  1  0
 25 26  1  0
 26 50  1  1
 26 27  1  0
 27 28  1  0
 28 51  1  6
 28 29  1  0
 29 52  1  0
 29 53  1  0
 29 54  1  0
 28 30  1  0
 30 55  1  1
 30 31  1  0
 31 56  1  0
 31 57  1  0
 30 32  1  0
 32 58  1  6
 32 33  1  0
 33 59  1  0
 26 34  1  0
 32 34  1  0
 34 60  1  1
 34 35  1  0
 35 61  1  0
 35 36  1  0
 36 37  2  0
 36 38  1  0
 38 62  1  0
 38 63  1  0
 38 64  1  0
M  CHG  2  20  -1  24  -1
M  END
>  <conformer_energy>  (1) 
-189.13

>  <ligand_smiles>  (1) 
CC(=O)N[C@H]1[C@@H](O[P@@](=O)([O-])O[P@](=O)([O-])OC[C@H]2O[C@@H](n3ccc(=O)[nH]c3=O)[C@H](O)[C@@H]2O)O[C@H](C)[C@@H](N)[C@@H]1O

>  <ligand_conf_name>  (1) 
MOL_0_isomer_0_conf_0

>  <ligand_molecule_name>  (1) 
MOL_0_isomer_0

$$$$
