MOL_0_isomer_0_conf_0
     RDKit          3D

 28 28  0  0  0  0  0  0  0  0999 V2000
    2.8247   -6.0533   -0.3363 C   0  0  0  0  0  0  0  0  0  0  0  0
    2.4675   -4.7181   -0.1261 C   0  0  0  0  0  0  0  0  0  0  0  0
    2.1130   -3.8978   -1.1997 C   0  0  0  0  0  0  0  0  0  0  0  0
    1.7165   -2.4496   -1.0107 C   0  0  0  0  0  0  0  0  0  0  0  0
    1.7309   -1.6821    0.6649 P   0  0  1  0  0  5  0  0  0  0  0  0
    0.6536   -2.3254    1.5094 O   0  0  0  0  0  0  0  0  0  0  0  0
    3.1622   -1.5985    1.1411 O   0  0  0  0  0  1  0  0  0  0  0  0
    1.2518   -0.1747    0.2645 O   0  0  0  0  0  0  0  0  0  0  0  0
   -0.1336    0.0707    0.1136 C   0  0  0  0  0  0  0  0  0  0  0  0
   -0.6642    0.7554    1.3571 C   0  0  0  0  0  0  0  0  0  0  0  0
    2.1260   -4.4420   -2.4928 C   0  0  0  0  0  0  0  0  0  0  0  0
    2.4829   -5.7766   -2.7046 C   0  0  0  0  0  0  0  0  0  0  0  0
    2.8236   -6.5977   -1.6250 C   0  0  0  0  0  0  0  0  0  0  0  0
    3.2416   -8.0189   -1.8479 C   0  0  0  0  0  0  0  0  0  0  0  0
    3.1035   -6.6577    0.5230 H   0  0  0  0  0  0  0  0  0  0  0  0
    2.4739   -4.3219    0.8898 H   0  0  0  0  0  0  0  0  0  0  0  0
    2.3818   -1.8319   -1.6264 H   0  0  0  0  0  0  0  0  0  0  0  0
    0.6983   -2.3301   -1.3991 H   0  0  0  0  0  0  0  0  0  0  0  0
   -0.2621    0.7276   -0.7524 H   0  0  0  0  0  0  0  0  0  0  0  0
   -0.6872   -0.8509   -0.0912 H   0  0  0  0  0  0  0  0  0  0  0  0
   -1.7279    0.9858    1.2506 H   0  0  0  0  0  0  0  0  0  0  0  0
   -0.1190    1.6859    1.5465 H   0  0  0  0  0  0  0  0  0  0  0  0
   -0.5280    0.1227    2.2398 H   0  0  0  0  0  0  0  0  0  0  0  0
    1.8600   -3.8189   -3.3429 H   0  0  0  0  0  0  0  0  0  0  0  0
    2.4928   -6.1675   -3.7181 H   0  0  0  0  0  0  0  0  0  0  0  0
    2.9749   -8.6442   -0.9893 H   0  0  0  0  0  0  0  0  0  0  0  0
    4.3239   -8.0714   -2.0013 H   0  0  0  0  0  0  0  0  0  0  0  0
    2.7394   -8.4412   -2.7247 H   0  0  0  0  0  0  0  0  0  0  0  0
 15  1  1  0
  1  2  2  0
  2 16  1  0
  2  3  1  0
  3  4  1  0
  4 17  1  0
  4 18  1  0
  4  5  1  0
  5  6  2  0
  5  7  1  1
  5  8  1  0
  8  9  1  0
  9 19  1  0
  9 20  1  0
  9 10  1  0
 10 21  1  0
 10 22  1  0
 10 23  1  0
  3 11  2  0
 11 24  1  0
 11 12  1  0
 12 25  1  0
  1 13  1  0
 12 13  2  0
 13 14  1  0
 14 26  1  0
 14 27  1  0
 14 28  1  0
M  CHG  1   7  -1
M  END
>  <conformer_energy>  (1) 
16.07

>  <ligand_smiles>  (1) 
CCO[P@](=O)([O-])Cc1ccc(C)cc1

>  <ligand_conf_name>  (1) 
MOL_0_isomer_0_conf_0

>  <ligand_molecule_name>  (1) 
MOL_0_isomer_0

$$$$
