MOL_0_isomer_0_conf_0
     RDKit          3D

 25 26  0  0  0  0  0  0  0  0999 V2000
    5.2316   -0.0276    2.8669 C   0  0  0  0  0  0  0  0  0  0  0  0
    6.0953   -0.0277    1.7736 C   0  0  0  0  0  0  0  0  0  0  0  0
    7.4603   -0.0343    1.9614 N   0  0  0  0  0  0  0  0  0  0  0  0
    5.5544   -0.0217    0.4830 C   0  0  0  0  0  0  0  0  0  0  0  0
    4.1592   -0.0155    0.2569 C   0  0  0  0  0  0  0  0  0  0  0  0
    3.5606   -0.0062   -1.0247 C   0  0  0  0  0  0  0  0  0  0  0  0
    4.3819    0.0016   -2.2888 C   0  0  0  0  0  0  0  0  0  0  0  0
    2.1635   -0.0009   -1.1237 C   0  0  0  0  0  0  0  0  0  0  0  0
    1.3777   -0.0122    0.0235 C   0  0  0  0  0  0  0  0  0  0  0  0
    0.0069    0.0123   -0.0319 N   0  0  0  0  0  0  0  0  0  0  0  0
    1.9805   -0.0111    1.2150 N   0  0  0  0  0  4  0  0  0  0  0  0
    3.3130   -0.0163    1.3881 C   0  0  0  0  0  0  0  0  0  0  0  0
    3.8483   -0.0216    2.6820 C   0  0  0  0  0  0  0  0  0  0  0  0
    5.6363   -0.0323    3.8779 H   0  0  0  0  0  0  0  0  0  0  0  0
    8.1034   -0.0332    1.1793 H   0  0  0  0  0  0  0  0  0  0  0  0
    7.8668   -0.0375    2.8890 H   0  0  0  0  0  0  0  0  0  0  0  0
    6.2438   -0.0213   -0.3601 H   0  0  0  0  0  0  0  0  0  0  0  0
    3.7468    0.0071   -3.1812 H   0  0  0  0  0  0  0  0  0  0  0  0
    5.0103   -0.8934   -2.3389 H   0  0  0  0  0  0  0  0  0  0  0  0
    5.0108    0.8968   -2.3275 H   0  0  0  0  0  0  0  0  0  0  0  0
    1.6881    0.0133   -2.1030 H   0  0  0  0  0  0  0  0  0  0  0  0
   -0.6060    0.0255    0.7714 H   0  0  0  0  0  0  0  0  0  0  0  0
   -0.4538   -0.1279   -0.9275 H   0  0  0  0  0  0  0  0  0  0  0  0
    1.3832   -0.0055    2.0327 H   0  0  0  0  0  0  0  0  0  0  0  0
    3.2100   -0.0218    3.5617 H   0  0  0  0  0  0  0  0  0  0  0  0
 14  1  1  0
  1  2  2  0
  2  3  1  0
  3 15  1  0
  3 16  1  0
  2  4  1  0
  4 17  1  0
  4  5  2  0
  5  6  1  0
  6  7  1  0
  7 18  1  0
  7 19  1  0
  7 20  1  0
  6  8  2  0
  8 21  1  0
  8  9  1  0
  9 10  1  0
 10 22  1  0
 10 23  1  0
  9 11  2  0
 11 24  1  0
  5 12  1  0
 11 12  1  0
  1 13  1  0
 12 13  2  0
 13 25  1  0
M  CHG  1  11   1
M  END
>  <conformer_energy>  (1) 
20.94

>  <ligand_smiles>  (1) 
Cc1cc(N)[nH+]c2ccc(N)cc12

>  <ligand_conf_name>  (1) 
MOL_0_isomer_0_conf_0

>  <ligand_molecule_name>  (1) 
MOL_0_isomer_0

$$$$
