MOL_0_isomer_0_conf_0
     RDKit          3D

 37 36  0  0  0  0  0  0  0  0999 V2000
    8.3115   -7.6270   -0.5746 C   0  0  0  0  0  0  0  0  0  0  0  0
    8.6098   -6.2834   -1.2207 C   0  0  0  0  0  0  0  0  0  0  0  0
    7.9422   -5.1359   -0.4615 C   0  0  0  0  0  0  0  0  0  0  0  0
    8.2436   -3.7876   -1.1194 C   0  0  0  0  0  0  0  0  0  0  0  0
    7.6952   -2.5914   -0.3360 C   0  0  0  0  0  0  0  0  0  0  0  0
    6.1664   -2.5455   -0.2866 C   0  0  0  0  0  0  0  0  0  0  0  0
    5.6728   -1.2728    0.4057 C   0  0  0  0  0  0  0  0  0  0  0  0
    4.1440   -1.2262    0.4608 C   0  0  0  0  0  0  0  0  0  0  0  0
    3.6534    0.0493    1.1494 C   0  0  0  0  0  0  0  0  0  0  0  0
    2.1337    0.0956    1.3337 C   0  0  0  0  0  0  0  0  0  0  0  0
    1.3632    0.1632    0.0182 C   0  0  0  0  0  0  0  0  0  0  0  0
   -0.1510    0.3539    0.1622 C   0  0  0  0  0  0  0  0  0  0  0  0
   -0.6192    0.3058    1.3324 O   0  0  0  0  0  0  0  0  0  0  0  0
   -0.7542    0.5344   -0.9354 O   0  0  0  0  0  1  0  0  0  0  0  0
    7.2350   -7.8257   -0.5615 H   0  0  0  0  0  0  0  0  0  0  0  0
    8.7987   -8.4325   -1.1329 H   0  0  0  0  0  0  0  0  0  0  0  0
    8.6793   -7.6570    0.4560 H   0  0  0  0  0  0  0  0  0  0  0  0
    8.2580   -6.2973   -2.2588 H   0  0  0  0  0  0  0  0  0  0  0  0
    9.6951   -6.1312   -1.2476 H   0  0  0  0  0  0  0  0  0  0  0  0
    8.2973   -5.1268    0.5761 H   0  0  0  0  0  0  0  0  0  0  0  0
    6.8604   -5.3074   -0.4337 H   0  0  0  0  0  0  0  0  0  0  0  0
    7.8411   -3.7747   -2.1396 H   0  0  0  0  0  0  0  0  0  0  0  0
    9.3306   -3.6677   -1.2076 H   0  0  0  0  0  0  0  0  0  0  0  0
    8.0654   -1.6743   -0.8110 H   0  0  0  0  0  0  0  0  0  0  0  0
    8.0988   -2.6033    0.6838 H   0  0  0  0  0  0  0  0  0  0  0  0
    5.7812   -3.4179    0.2527 H   0  0  0  0  0  0  0  0  0  0  0  0
    5.7640   -2.5883   -1.3059 H   0  0  0  0  0  0  0  0  0  0  0  0
    6.0792   -1.2282    1.4235 H   0  0  0  0  0  0  0  0  0  0  0  0
    6.0471   -0.3928   -0.1314 H   0  0  0  0  0  0  0  0  0  0  0  0
    3.7478   -1.2787   -0.5594 H   0  0  0  0  0  0  0  0  0  0  0  0
    3.7694   -2.1036    1.0017 H   0  0  0  0  0  0  0  0  0  0  0  0
    3.9818    0.9275    0.5803 H   0  0  0  0  0  0  0  0  0  0  0  0
    4.1195    0.1233    2.1399 H   0  0  0  0  0  0  0  0  0  0  0  0
    1.8908    0.9777    1.9396 H   0  0  0  0  0  0  0  0  0  0  0  0
    1.8078   -0.7779    1.9117 H   0  0  0  0  0  0  0  0  0  0  0  0
    1.7475    0.9932   -0.5875 H   0  0  0  0  0  0  0  0  0  0  0  0
    1.5149   -0.7594   -0.5536 H   0  0  0  0  0  0  0  0  0  0  0  0
 15  1  1  0
  1 16  1  0
  1 17  1  0
  1  2  1  0
  2 18  1  0
  2 19  1  0
  2  3  1  0
  3 20  1  0
  3 21  1  0
  3  4  1  0
  4 22  1  0
  4 23  1  0
  4  5  1  0
  5 24  1  0
  5 25  1  0
  5  6  1  0
  6 26  1  0
  6 27  1  0
  6  7  1  0
  7 28  1  0
  7 29  1  0
  7  8  1  0
  8 30  1  0
  8 31  1  0
  8  9  1  0
  9 32  1  0
  9 33  1  0
  9 10  1  0
 10 34  1  0
 10 35  1  0
 10 11  1  0
 11 36  1  0
 11 37  1  0
 11 12  1  0
 12 13  2  0
 12 14  1  0
M  CHG  1  14  -1
M  END
>  <conformer_energy>  (1) 
1.76

>  <ligand_smiles>  (1) 
CCCCCCCCCCCC(=O)[O-]

>  <ligand_conf_name>  (1) 
MOL_0_isomer_0_conf_0

>  <ligand_molecule_name>  (1) 
MOL_0_isomer_0

$$$$
