MOL_0_isomer_0_conf_0
     RDKit          3D

 51 54  0  0  0  0  0  0  0  0999 V2000
   -0.2134    5.7550    4.4605 C   0  0  0  0  0  0  0  0  0  0  0  0
   -1.2157    6.2479    5.1966 N   0  0  0  0  0  0  0  0  0  0  0  0
   -1.0669    7.5775    5.0654 N   0  0  0  0  0  0  0  0  0  0  0  0
   -1.9796    8.4668    5.7397 C   0  0  0  0  0  0  0  0  0  0  0  0
   -0.0200    7.9327    4.2681 C   0  0  0  0  0  0  0  0  0  0  0  0
    0.5766    6.7598    3.8462 C   0  0  0  0  0  0  0  0  0  0  0  0
    1.7432    6.6726    2.9726 C   0  0  0  0  0  0  0  0  0  0  0  0
    2.4662    7.8148    2.6064 C   0  0  0  0  0  0  0  0  0  0  0  0
    3.5888    7.7481    1.7546 C   0  0  0  0  0  0  0  0  0  0  0  0
    4.3245    9.0204    1.3744 C   0  0  0  0  0  0  0  0  0  0  0  0
    5.3026    8.9102    0.5748 O   0  0  0  0  0  0  0  0  0  0  0  0
    3.8963   10.1025    1.8862 O   0  0  0  0  0  1  0  0  0  0  0  0
    4.0021    6.4934    1.2678 C   0  0  0  0  0  0  0  0  0  0  0  0
    3.3087    5.3389    1.6214 C   0  0  0  0  0  0  0  0  0  0  0  0
    3.6340    4.0361    1.1830 N   0  0  0  0  0  0  0  0  0  0  0  0
    4.6909    3.6321    0.4004 C   0  0  0  0  0  0  0  0  0  0  0  0
    5.6287    4.3214    0.0243 O   0  0  0  0  0  0  0  0  0  0  0  0
    4.6581    2.1999    0.0830 C   0  0  0  0  0  0  0  0  0  0  0  0
    5.8016    1.4410   -0.0771 C   0  0  0  0  0  0  0  0  0  0  0  0
    5.4764    0.1238   -0.3364 N   0  0  0  0  0  0  0  0  0  0  0  0
    6.3904   -0.9384   -0.5303 C   0  0  0  0  0  0  0  0  0  0  0  0
    5.9936   -2.0790   -0.7406 O   0  0  0  0  0  0  0  0  0  0  0  0
    7.8414   -0.5650   -0.4534 C   0  0  0  0  0  0  0  0  0  0  0  0
    4.0791    0.0385   -0.3757 C   0  0  0  0  0  0  0  0  0  0  0  0
    3.2290   -1.0594   -0.6070 C   0  0  0  0  0  0  0  0  0  0  0  0
    1.8468   -0.8495   -0.6270 C   0  0  0  0  0  0  0  0  0  0  0  0
    1.3022    0.4153   -0.4396 C   0  0  0  0  0  0  0  0  0  0  0  0
   -0.0642    0.4660   -0.5063 O   0  0  0  0  0  0  0  0  0  0  0  0
   -0.6709    1.7417   -0.3352 C   0  0  0  0  0  0  0  0  0  0  0  0
    2.1500    1.5024   -0.2098 C   0  0  0  0  0  0  0  0  0  0  0  0
    3.5560    1.3198   -0.1502 C   0  0  0  0  0  0  0  0  0  0  0  0
    2.1862    5.4462    2.4630 C   0  0  0  0  0  0  0  0  0  0  0  0
    1.5292    4.3081    2.7607 F   0  0  0  0  0  0  0  0  0  0  0  0
   -0.1001    4.6803    4.4047 H   0  0  0  0  0  0  0  0  0  0  0  0
   -2.9786    8.3145    5.3238 H   0  0  0  0  0  0  0  0  0  0  0  0
   -1.6635    9.5015    5.5841 H   0  0  0  0  0  0  0  0  0  0  0  0
   -1.9676    8.2311    6.8069 H   0  0  0  0  0  0  0  0  0  0  0  0
    0.2072    8.9722    4.0732 H   0  0  0  0  0  0  0  0  0  0  0  0
    2.1809    8.8001    2.9722 H   0  0  0  0  0  0  0  0  0  0  0  0
    4.8691    6.4647    0.6110 H   0  0  0  0  0  0  0  0  0  0  0  0
    3.0229    3.3124    1.5407 H   0  0  0  0  0  0  0  0  0  0  0  0
    6.8307    1.7692   -0.0051 H   0  0  0  0  0  0  0  0  0  0  0  0
    8.0946    0.1619   -1.2298 H   0  0  0  0  0  0  0  0  0  0  0  0
    8.4465   -1.4612   -0.6244 H   0  0  0  0  0  0  0  0  0  0  0  0
    8.0881   -0.1797    0.5397 H   0  0  0  0  0  0  0  0  0  0  0  0
    3.6203   -2.0587   -0.7772 H   0  0  0  0  0  0  0  0  0  0  0  0
    1.1863   -1.6952   -0.8068 H   0  0  0  0  0  0  0  0  0  0  0  0
   -1.7541    1.6093   -0.4140 H   0  0  0  0  0  0  0  0  0  0  0  0
   -0.3624    2.4339   -1.1255 H   0  0  0  0  0  0  0  0  0  0  0  0
   -0.4573    2.1530    0.6569 H   0  0  0  0  0  0  0  0  0  0  0  0
    1.7486    2.5025   -0.0920 H   0  0  0  0  0  0  0  0  0  0  0  0
 34  1  1  0
  1  2  2  0
  2  3  1  0
  3  4  1  0
  4 35  1  0
  4 36  1  0
  4 37  1  0
  3  5  1  0
  5 38  1  0
  1  6  1  0
  5  6  2  0
  6  7  1  0
  7  8  2  0
  8 39  1  0
  8  9  1  0
  9 10  1  0
 10 11  2  0
 10 12  1  0
  9 13  2  0
 13 40  1  0
 13 14  1  0
 14 15  1  0
 15 41  1  0
 15 16  1  0
 16 17  2  0
 16 18  1  0
 18 19  2  0
 19 42  1  0
 19 20  1  0
 20 21  1  0
 21 22  2  0
 21 23  1  0
 23 43  1  0
 23 44  1  0
 23 45  1  0
 20 24  1  0
 24 25  1  0
 25 46  1  0
 25 26  2  0
 26 47  1  0
 26 27  1  0
 27 28  1  0
 28 29  1  0
 29 48  1  0
 29 49  1  0
 29 50  1  0
 27 30  2  0
 30 51  1  0
 18 31  1  0
 24 31  2  0
 30 31  1  0
  7 32  1  0
 14 32  2  0
 32 33  1  0
M  CHG  1  12  -1
M  END
>  <conformer_energy>  (1) 
96.33

>  <ligand_smiles>  (1) 
COc1ccc2c(c1)c(C(=O)Nc1cc(C(=O)[O-])cc(-c3cnn(C)c3)c1F)cn2C(C)=O

>  <ligand_conf_name>  (1) 
MOL_0_isomer_0_conf_0

>  <ligand_molecule_name>  (1) 
MOL_0_isomer_0

$$$$
