MOL_0_isomer_0_conf_0
     RDKit          3D

 31 30  0  0  0  0  0  0  0  0999 V2000
    5.7736    0.1111    7.6582 C   0  0  0  0  0  0  0  0  0  0  0  0
    6.1235    1.2962    6.7714 C   0  0  0  0  0  0  0  0  0  0  0  0
    5.6172    1.1528    5.3337 C   0  0  0  0  0  0  0  0  0  0  0  0
    4.0896    1.1336    5.2322 C   0  0  0  0  0  0  0  0  0  0  0  0
    3.5743    1.2178    3.7907 C   0  0  0  0  0  0  0  0  0  0  0  0
    3.9203   -0.0146    2.9507 C   0  0  0  0  0  0  0  0  0  0  0  0
    3.4073    0.0691    1.5091 C   0  0  0  0  0  0  0  0  0  0  0  0
    1.8812    0.0310    1.4005 C   0  0  0  0  0  0  0  0  0  0  0  0
    1.4303   -0.0062   -0.0573 C   0  0  0  0  0  0  0  0  0  0  0  0
   -0.0864   -0.0403   -0.2720 C   0  0  0  0  0  0  0  0  0  0  0  0
   -0.8051   -0.0488    0.7646 O   0  0  0  0  0  0  0  0  0  0  0  0
   -0.4343   -0.0565   -1.4884 O   0  0  0  0  0  1  0  0  0  0  0  0
    4.6935    0.0302    7.8115 H   0  0  0  0  0  0  0  0  0  0  0  0
    6.2397    0.2278    8.6419 H   0  0  0  0  0  0  0  0  0  0  0  0
    6.1332   -0.8261    7.2220 H   0  0  0  0  0  0  0  0  0  0  0  0
    7.2146    1.4026    6.7462 H   0  0  0  0  0  0  0  0  0  0  0  0
    5.7263    2.2154    7.2174 H   0  0  0  0  0  0  0  0  0  0  0  0
    6.0064    1.9946    4.7479 H   0  0  0  0  0  0  0  0  0  0  0  0
    6.0371    0.2397    4.8971 H   0  0  0  0  0  0  0  0  0  0  0  0
    3.6838    1.9873    5.7889 H   0  0  0  0  0  0  0  0  0  0  0  0
    3.6905    0.2281    5.7035 H   0  0  0  0  0  0  0  0  0  0  0  0
    3.9728    2.1191    3.3096 H   0  0  0  0  0  0  0  0  0  0  0  0
    2.4861    1.3375    3.8359 H   0  0  0  0  0  0  0  0  0  0  0  0
    3.5214   -0.9159    3.4314 H   0  0  0  0  0  0  0  0  0  0  0  0
    5.0087   -0.1336    2.9072 H   0  0  0  0  0  0  0  0  0  0  0  0
    3.7910    0.9803    1.0342 H   0  0  0  0  0  0  0  0  0  0  0  0
    3.8252   -0.7777    0.9503 H   0  0  0  0  0  0  0  0  0  0  0  0
    1.4971   -0.8506    1.9279 H   0  0  0  0  0  0  0  0  0  0  0  0
    1.4471    0.9112    1.8877 H   0  0  0  0  0  0  0  0  0  0  0  0
    1.8198    0.8751   -0.5821 H   0  0  0  0  0  0  0  0  0  0  0  0
    1.8530   -0.8915   -0.5485 H   0  0  0  0  0  0  0  0  0  0  0  0
 13  1  1  0
  1 14  1  0
  1 15  1  0
  1  2  1  0
  2 16  1  0
  2 17  1  0
  2  3  1  0
  3 18  1  0
  3 19  1  0
  3  4  1  0
  4 20  1  0
  4 21  1  0
  4  5  1  0
  5 22  1  0
  5 23  1  0
  5  6  1  0
  6 24  1  0
  6 25  1  0
  6  7  1  0
  7 26  1  0
  7 27  1  0
  7  8  1  0
  8 28  1  0
  8 29  1  0
  8  9  1  0
  9 30  1  0
  9 31  1  0
  9 10  1  0
 10 11  2  0
 10 12  1  0
M  CHG  1  12  -1
M  END
>  <conformer_energy>  (1) 
3.07

>  <ligand_smiles>  (1) 
CCCCCCCCCC(=O)[O-]

>  <ligand_conf_name>  (1) 
MOL_0_isomer_0_conf_0

>  <ligand_molecule_name>  (1) 
MOL_0_isomer_0

$$$$
