MOL_0_isomer_0_conf_0
     RDKit          3D

 51 54  0  0  0  0  0  0  0  0999 V2000
    6.2956    1.3801    1.4737 O   0  0  0  0  0  0  0  0  0  0  0  0
    6.0349    2.3019    2.5271 C   0  0  2  0  0  0  0  0  0  0  0  0
    5.5714    1.5596    3.7923 C   0  0  2  0  0  0  0  0  0  0  0  0
    6.5223    0.5448    4.1224 O   0  0  0  0  0  0  0  0  0  0  0  0
    4.1332    0.9945    3.7051 C   0  0  2  0  0  0  0  0  0  0  0  0
    4.0073   -0.3671    3.0363 C   0  0  0  0  0  0  0  0  0  0  0  0
    3.1897    1.9858    3.1011 N   0  0  0  0  0  4  0  0  0  0  0  0
    3.6035    2.7400    1.8631 C   0  0  2  0  0  0  0  0  0  0  0  0
    3.3953    1.9291    0.5709 C   0  0  0  0  0  0  0  0  0  0  0  0
    2.0236    1.4404    0.4605 N   0  0  0  0  0  0  0  0  0  0  0  0
    1.7299    0.1026    0.3183 C   0  0  0  0  0  0  0  0  0  0  0  0
    2.5723   -0.7783    0.2266 O   0  0  0  0  0  0  0  0  0  0  0  0
    0.3006   -0.2445    0.2681 C   0  0  0  0  0  0  0  0  0  0  0  0
   -0.1766   -1.0295   -0.7875 C   0  0  0  0  0  0  0  0  0  0  0  0
   -1.5350   -1.3892   -0.8498 C   0  0  0  0  0  0  0  0  0  0  0  0
   -2.4336   -0.9879    0.1471 C   0  0  0  0  0  0  0  0  0  0  0  0
   -1.9546   -0.2334    1.2066 C   0  0  0  0  0  0  0  0  0  0  0  0
   -0.5951    0.1271    1.2551 C   0  0  0  0  0  0  0  0  0  0  0  0
   -0.3876    0.8787    2.5178 C   0  0  0  0  0  0  0  0  0  0  0  0
    0.6567    1.3502    2.9284 O   0  0  0  0  0  0  0  0  0  0  0  0
   -1.7028    0.9541    3.1892 C   0  0  0  0  0  0  0  0  0  0  0  0
   -2.0367    1.5556    4.3873 C   0  0  0  0  0  0  0  0  0  0  0  0
   -3.3710    1.4729    4.7857 C   0  0  0  0  0  0  0  0  0  0  0  0
   -4.3188    0.8022    3.9891 C   0  0  0  0  0  0  0  0  0  0  0  0
   -3.9529    0.1997    2.7780 C   0  0  0  0  0  0  0  0  0  0  0  0
   -2.6304    0.2802    2.3790 C   0  0  0  0  0  0  0  0  0  0  0  0
    5.0024    3.3413    2.0772 C   0  0  1  0  0  0  0  0  0  0  0  0
    4.8733    4.3378    3.1067 O   0  0  0  0  0  0  0  0  0  0  0  0
    7.2553    1.1882    1.4719 H   0  0  0  0  0  0  0  0  0  0  0  0
    6.9816    2.8091    2.7541 H   0  0  0  0  0  0  0  0  0  0  0  0
    5.5880    2.2745    4.6248 H   0  0  0  0  0  0  0  0  0  0  0  0
    6.6418   -0.0329    3.3443 H   0  0  0  0  0  0  0  0  0  0  0  0
    3.7695    0.8574    4.7318 H   0  0  0  0  0  0  0  0  0  0  0  0
    4.5126   -1.1330    3.6353 H   0  0  0  0  0  0  0  0  0  0  0  0
    2.9588   -0.6710    2.9548 H   0  0  0  0  0  0  0  0  0  0  0  0
    4.4588   -0.3906    2.0439 H   0  0  0  0  0  0  0  0  0  0  0  0
    2.9877    2.7004    3.8141 H   0  0  0  0  0  0  0  0  0  0  0  0
    2.2543    1.5505    2.9323 H   0  0  0  0  0  0  0  0  0  0  0  0
    2.8842    3.5703    1.8301 H   0  0  0  0  0  0  0  0  0  0  0  0
    3.5598    2.5804   -0.2947 H   0  0  0  0  0  0  0  0  0  0  0  0
    4.0929    1.0967    0.4820 H   0  0  0  0  0  0  0  0  0  0  0  0
    1.2641    2.1117    0.4095 H   0  0  0  0  0  0  0  0  0  0  0  0
    0.5040   -1.3706   -1.5669 H   0  0  0  0  0  0  0  0  0  0  0  0
   -1.8901   -1.9983   -1.6807 H   0  0  0  0  0  0  0  0  0  0  0  0
   -3.4775   -1.2845    0.0874 H   0  0  0  0  0  0  0  0  0  0  0  0
   -1.2990    2.0675    4.9941 H   0  0  0  0  0  0  0  0  0  0  0  0
   -3.6881    1.9286    5.7224 H   0  0  0  0  0  0  0  0  0  0  0  0
   -5.3546    0.7499    4.3230 H   0  0  0  0  0  0  0  0  0  0  0  0
   -4.6996   -0.3147    2.1803 H   0  0  0  0  0  0  0  0  0  0  0  0
    5.3254    3.8407    1.1566 H   0  0  0  0  0  0  0  0  0  0  0  0
    5.6620    4.9159    3.0692 H   0  0  0  0  0  0  0  0  0  0  0  0
 29  1  1  0
  1  2  1  0
  2 30  1  1
  2  3  1  0
  3 31  1  1
  3  4  1  0
  4 32  1  0
  3  5  1  0
  5 33  1  1
  5  6  1  0
  6 34  1  0
  6 35  1  0
  6 36  1  0
  5  7  1  0
  7 37  1  0
  7 38  1  0
  7  8  1  0
  8 39  1  6
  8  9  1  0
  9 40  1  0
  9 41  1  0
  9 10  1  0
 10 42  1  0
 10 11  1  0
 11 12  2  0
 11 13  1  0
 13 14  2  0
 14 43  1  0
 14 15  1  0
 15 44  1  0
 15 16  2  0
 16 45  1  0
 16 17  1  0
 13 18  1  0
 17 18  2  0
 18 19  1  0
 19 20  2  0
 19 21  1  0
 21 22  1  0
 22 46  1  0
 22 23  2  0
 23 47  1  0
 23 24  1  0
 24 48  1  0
 24 25  2  0
 25 49  1  0
 21 26  2  0
 17 26  1  0
 25 26  1  0
  2 27  1  0
  8 27  1  0
 27 50  1  6
 27 28  1  0
 28 51  1  0
M  CHG  1   7   1
M  END
>  <conformer_energy>  (1) 
133.08

>  <ligand_smiles>  (1) 
C[C@@H]1[NH2+][C@H](CNC(=O)c2cccc3c2C(=O)c2ccccc2-3)[C@@H](O)[C@H](O)[C@@H]1O

>  <ligand_conf_name>  (1) 
MOL_0_isomer_0_conf_0

>  <ligand_molecule_name>  (1) 
MOL_0_isomer_0

$$$$
