MOL_0_isomer_0_conf_0
     RDKit          3D

 74 77  0  0  0  0  0  0  0  0999 V2000
    7.4314    0.0778    3.5817 C   0  0  0  0  0  0  0  0  0  0  0  0
    8.8002    0.0366    3.9586 C   0  0  0  0  0  0  0  0  0  0  0  0
    9.6828   -1.1280    4.0831 C   0  0  0  0  0  0  0  0  0  0  0  0
    9.3158   -2.3785    3.5661 C   0  0  0  0  0  0  0  0  0  0  0  0
   10.1795   -3.4766    3.6666 C   0  0  0  0  0  0  0  0  0  0  0  0
   11.4314   -3.3591    4.2843 C   0  0  0  0  0  0  0  0  0  0  0  0
   12.3502   -4.4999    4.3658 C   0  0  0  0  0  0  0  0  0  0  0  0
   12.8643   -5.0875    3.1982 C   0  0  0  0  0  0  0  0  0  0  0  0
   13.7467   -6.1703    3.2613 C   0  0  0  0  0  0  0  0  0  0  0  0
   14.1284   -6.6831    4.4996 C   0  0  0  0  0  0  0  0  0  0  0  0
   13.6242   -6.1100    5.6656 C   0  0  0  0  0  0  0  0  0  0  0  0
   14.0984   -6.7448    7.1934 Cl  0  0  0  0  0  0  0  0  0  0  0  0
   12.7447   -5.0269    5.6052 C   0  0  0  0  0  0  0  0  0  0  0  0
   11.7928   -2.1106    4.8057 C   0  0  0  0  0  0  0  0  0  0  0  0
   10.9338   -1.0093    4.7041 C   0  0  0  0  0  0  0  0  0  0  0  0
    9.2411    1.2809    4.2164 N   0  0  0  0  0  0  0  0  0  0  0  0
    8.1804    2.1299    3.9784 O   0  0  0  0  0  0  0  0  0  0  0  0
    7.0942    1.4088    3.5956 C   0  0  0  0  0  0  0  0  0  0  0  0
    5.8461    2.1788    3.3406 C   0  0  0  0  0  0  0  0  0  0  0  0
    5.3785    2.1388    1.8726 C   0  0  1  0  0  0  0  0  0  0  0  0
    4.5480    0.8658    1.6781 C   0  0  0  0  0  0  0  0  0  0  0  0
    5.1034   -0.2263    1.5059 O   0  0  0  0  0  0  0  0  0  0  0  0
    3.1935    0.9802    1.8427 N   0  0  0  0  0  0  0  0  0  0  0  0
    2.3146   -0.1805    1.8861 C   0  0  2  0  0  0  0  0  0  0  0  0
    0.8425    0.2291    1.6324 C   0  0  0  0  0  0  0  0  0  0  0  0
   -0.0878   -0.1408    2.3542 O   0  0  0  0  0  0  0  0  0  0  0  0
    0.6354    0.9705    0.4936 N   0  0  0  0  0  0  0  0  0  0  0  0
   -0.6810    1.3542    0.0128 C   0  0  2  0  0  0  0  0  0  0  0  0
   -0.9316    0.8390   -1.4254 C   0  0  0  0  0  0  0  0  0  0  0  0
   -0.1266    0.2278   -2.1238 O   0  0  0  0  0  0  0  0  0  0  0  0
   -2.1909    1.0632   -1.9221 N   0  0  0  0  0  0  0  0  0  0  0  0
   -0.8510    2.8741    0.0940 C   0  0  0  0  0  0  0  0  0  0  0  0
    2.4412   -0.8895    3.2328 C   0  0  0  0  0  0  0  0  0  0  0  0
    4.6719    3.4609    1.5512 C   0  0  0  0  0  0  0  0  0  0  0  0
    3.8486    3.5149   -0.0842 P   0  0  1  0  0  5  0  0  0  0  0  0
    4.8445    2.9372   -1.0621 O   0  0  0  0  0  0  0  0  0  0  0  0
    2.5261    2.7995    0.1514 O   0  0  0  0  0  1  0  0  0  0  0  0
    3.5764    5.2709   -0.3599 C   0  0  0  0  0  0  0  0  0  0  0  0
    4.4023    5.9838   -1.2383 C   0  0  0  0  0  0  0  0  0  0  0  0
    4.2011    7.3469   -1.4558 C   0  0  0  0  0  0  0  0  0  0  0  0
    3.1624    7.9983   -0.7928 C   0  0  0  0  0  0  0  0  0  0  0  0
    2.8748    9.8476   -1.0828 Br  0  0  0  0  0  0  0  0  0  0  0  0
    2.3335    7.3050    0.0853 C   0  0  0  0  0  0  0  0  0  0  0  0
    2.5387    5.9414    0.2946 C   0  0  0  0  0  0  0  0  0  0  0  0
    6.7773   -0.7412    3.3243 H   0  0  0  0  0  0  0  0  0  0  0  0
    8.3640   -2.5151    3.0599 H   0  0  0  0  0  0  0  0  0  0  0  0
    9.8640   -4.4299    3.2525 H   0  0  0  0  0  0  0  0  0  0  0  0
   12.5804   -4.6910    2.2259 H   0  0  0  0  0  0  0  0  0  0  0  0
   14.1326   -6.6049    2.3411 H   0  0  0  0  0  0  0  0  0  0  0  0
   14.8200   -7.5196    4.5477 H   0  0  0  0  0  0  0  0  0  0  0  0
   12.3583   -4.5958    6.5276 H   0  0  0  0  0  0  0  0  0  0  0  0
   12.7601   -1.9764    5.2805 H   0  0  0  0  0  0  0  0  0  0  0  0
   11.2628   -0.0528    5.1082 H   0  0  0  0  0  0  0  0  0  0  0  0
    6.0269    3.2181    3.6511 H   0  0  0  0  0  0  0  0  0  0  0  0
    5.0589    1.7986    4.0063 H   0  0  0  0  0  0  0  0  0  0  0  0
    6.2381    2.0495    1.1923 H   0  0  0  0  0  0  0  0  0  0  0  0
    2.7799    1.8355    1.4533 H   0  0  0  0  0  0  0  0  0  0  0  0
    2.6079   -0.8670    1.0829 H   0  0  0  0  0  0  0  0  0  0  0  0
    1.4437    1.4557    0.0730 H   0  0  0  0  0  0  0  0  0  0  0  0
   -1.4458    0.8843    0.6453 H   0  0  0  0  0  0  0  0  0  0  0  0
   -2.9134    1.5414   -1.4040 H   0  0  0  0  0  0  0  0  0  0  0  0
   -2.3615    0.7645   -2.8711 H   0  0  0  0  0  0  0  0  0  0  0  0
   -0.0736    3.3985   -0.4686 H   0  0  0  0  0  0  0  0  0  0  0  0
   -0.7803    3.2058    1.1346 H   0  0  0  0  0  0  0  0  0  0  0  0
   -1.8174    3.2059   -0.2996 H   0  0  0  0  0  0  0  0  0  0  0  0
    1.7860   -1.7636    3.2828 H   0  0  0  0  0  0  0  0  0  0  0  0
    3.4626   -1.2339    3.4169 H   0  0  0  0  0  0  0  0  0  0  0  0
    2.1664   -0.2191    4.0527 H   0  0  0  0  0  0  0  0  0  0  0  0
    3.9099    3.6934    2.3077 H   0  0  0  0  0  0  0  0  0  0  0  0
    5.4072    4.2768    1.5732 H   0  0  0  0  0  0  0  0  0  0  0  0
    5.1931    5.4488   -1.7630 H   0  0  0  0  0  0  0  0  0  0  0  0
    4.8417    7.8728   -2.1558 H   0  0  0  0  0  0  0  0  0  0  0  0
    1.5112    7.8005    0.5947 H   0  0  0  0  0  0  0  0  0  0  0  0
    1.8860    5.3769    0.9544 H   0  0  0  0  0  0  0  0  0  0  0  0
 45  1  1  0
  1  2  1  0
  2  3  1  0
  3  4  2  0
  4 46  1  0
  4  5  1  0
  5 47  1  0
  5  6  2  0
  6  7  1  0
  7  8  2  0
  8 48  1  0
  8  9  1  0
  9 49  1  0
  9 10  2  0
 10 50  1  0
 10 11  1  0
 11 12  1  0
  7 13  1  0
 11 13  2  0
 13 51  1  0
  6 14  1  0
 14 52  1  0
  3 15  1  0
 14 15  2  0
 15 53  1  0
  2 16  2  0
 16 17  1  0
  1 18  2  0
 17 18  1  0
 18 19  1  0
 19 54  1  0
 19 55  1  0
 19 20  1  0
 20 56  1  6
 20 21  1  0
 21 22  2  0
 21 23  1  0
 23 57  1  0
 23 24  1  0
 24 58  1  6
 24 25  1  0
 25 26  2  0
 25 27  1  0
 27 59  1  0
 27 28  1  0
 28 60  1  1
 28 29  1  0
 29 30  2  0
 29 31  1  0
 31 61  1  0
 31 62  1  0
 28 32  1  0
 32 63  1  0
 32 64  1  0
 32 65  1  0
 24 33  1  0
 33 66  1  0
 33 67  1  0
 33 68  1  0
 20 34  1  0
 34 69  1  0
 34 70  1  0
 34 35  1  0
 35 36  2  0
 35 37  1  1
 35 38  1  0
 38 39  2  0
 39 71  1  0
 39 40  1  0
 40 72  1  0
 40 41  2  0
 41 42  1  0
 41 43  1  0
 43 73  1  0
 38 44  1  0
 43 44  2  0
 44 74  1  0
M  CHG  1  37  -1
M  END
>  <conformer_energy>  (1) 
24.81

>  <ligand_smiles>  (1) 
C[C@H](NC(=O)[C@H](C)NC(=O)[C@H](Cc1cc(-c2ccc(-c3cccc(Cl)c3)cc2)no1)C[P@@](=O)([O-])c1ccc(Br)cc1)C(N)=O

>  <ligand_conf_name>  (1) 
MOL_0_isomer_0_conf_0

>  <ligand_molecule_name>  (1) 
MOL_0_isomer_0

$$$$
