MOL_0_isomer_0_conf_0
     RDKit          3D

 20 20  0  0  0  0  0  0  0  0999 V2000
    2.2016   -0.9629   -1.0012 C   0  0  0  0  0  0  0  0  0  0  0  0
    3.5887   -1.0787   -0.9421 C   0  0  0  0  0  0  0  0  0  0  0  0
    4.3150   -0.3416    0.0032 C   0  0  0  0  0  0  0  0  0  0  0  0
    5.8061   -0.3361   -0.0370 C   0  0  0  0  0  0  0  0  0  0  0  0
    6.2623    0.7325   -0.9542 N   0  0  0  0  0  4  0  0  0  0  0  0
    3.6327    0.4872    0.9042 C   0  0  0  0  0  0  0  0  0  0  0  0
    2.2454    0.5971    0.8380 C   0  0  0  0  0  0  0  0  0  0  0  0
    1.5130   -0.1114   -0.1254 C   0  0  0  0  0  0  0  0  0  0  0  0
    0.0098    0.0527   -0.2287 C   0  0  0  0  0  0  0  0  0  0  0  0
   -0.5312    0.8555    0.5911 O   0  0  0  0  0  0  0  0  0  0  0  0
   -0.5724   -0.6120   -1.1390 O   0  0  0  0  0  1  0  0  0  0  0  0
    1.6321   -1.5262   -1.7418 H   0  0  0  0  0  0  0  0  0  0  0  0
    4.0767   -1.7406   -1.6534 H   0  0  0  0  0  0  0  0  0  0  0  0
    6.2121   -1.2815   -0.4108 H   0  0  0  0  0  0  0  0  0  0  0  0
    6.2444   -0.1315    0.9450 H   0  0  0  0  0  0  0  0  0  0  0  0
    5.8941    1.6382   -0.6367 H   0  0  0  0  0  0  0  0  0  0  0  0
    5.8643    0.5760   -1.8890 H   0  0  0  0  0  0  0  0  0  0  0  0
    7.2815    0.7856   -1.0236 H   0  0  0  0  0  0  0  0  0  0  0  0
    4.1556    1.0691    1.6593 H   0  0  0  0  0  0  0  0  0  0  0  0
    1.7100    1.2487    1.5299 H   0  0  0  0  0  0  0  0  0  0  0  0
 12  1  1  0
  1  2  2  0
  2 13  1  0
  2  3  1  0
  3  4  1  0
  4 14  1  0
  4 15  1  0
  4  5  1  0
  5 16  1  0
  5 17  1  0
  5 18  1  0
  3  6  2  0
  6 19  1  0
  6  7  1  0
  7 20  1  0
  1  8  1  0
  7  8  2  0
  8  9  1  0
  9 10  2  0
  9 11  1  0
M  CHG  2   5   1  11  -1
M  END
>  <conformer_energy>  (1) 
-14.84

>  <ligand_smiles>  (1) 
[NH3+]Cc1ccc(C(=O)[O-])cc1

>  <ligand_conf_name>  (1) 
MOL_0_isomer_0_conf_0

>  <ligand_molecule_name>  (1) 
MOL_0_isomer_0

$$$$
