MOL_0_isomer_0_chiral_N_isomer_0_conf_0
     RDKit          3D

 64 64  0  0  0  0  0  0  0  0999 V2000
    2.8997    9.4640    6.7402 C   0  0  0  0  0  0  0  0  0  0  0  0
    2.1626    8.5222    6.0242 C   0  0  0  0  0  0  0  0  0  0  0  0
    2.4543    7.1625    6.1496 C   0  0  0  0  0  0  0  0  0  0  0  0
    3.4918    6.7295    6.9885 C   0  0  0  0  0  0  0  0  0  0  0  0
    3.8022    5.2572    7.1434 C   0  0  0  0  0  0  0  0  0  0  0  0
    3.8032    4.6305    5.8623 O   0  0  0  0  0  0  0  0  0  0  0  0
    4.2862    3.3640    5.8736 C   0  0  0  0  0  0  0  0  0  0  0  0
    4.6166    2.7532    6.8827 O   0  0  0  0  0  0  0  0  0  0  0  0
    4.3506    2.8963    4.6125 N   0  0  0  0  0  0  0  0  0  0  0  0
    4.9522    1.6343    4.2086 C   0  0  0  0  0  0  0  0  0  0  0  0
    4.7244    1.5372    2.3770 P   0  0  2  0  0  5  0  0  0  0  0  0
    5.9628    0.9794    1.7300 O   0  0  0  0  0  0  0  0  0  0  0  0
    4.1021    2.8504    1.9547 O   0  0  0  0  0  1  0  0  0  0  0  0
    3.4415    0.3724    2.2325 N   0  0  0  0  0  0  0  0  0  0  0  0
    3.1825   -0.0436    0.8108 C   0  0  2  0  0  0  0  0  0  0  0  0
    1.6579   -0.2162    0.6021 C   0  0  0  0  0  0  0  0  0  0  0  0
    0.8951   -0.5419    1.5165 O   0  0  0  0  0  0  0  0  0  0  0  0
    1.2269    0.0117   -0.6832 N   0  0  0  0  0  0  0  0  0  0  0  0
   -0.1429   -0.2057   -1.1820 C   0  0  2  0  0  0  0  0  0  0  0  0
   -0.1532   -0.6309   -2.6929 C   0  0  0  0  0  0  0  0  0  0  0  0
   -1.2103   -1.1875   -3.1074 O   0  0  0  0  0  0  0  0  0  0  0  0
    0.9188   -0.3748   -3.3247 O   0  0  0  0  0  1  0  0  0  0  0  0
   -0.9796    1.0839   -1.1261 C   0  0  0  0  0  0  0  0  0  0  0  0
   -1.3688    1.5667    0.2840 C   0  0  0  0  0  0  0  0  0  0  0  0
   -2.0487    2.9374    0.1884 C   0  0  0  0  0  0  0  0  0  0  0  0
   -2.3017    0.5876    0.9973 C   0  0  0  0  0  0  0  0  0  0  0  0
    3.9083   -1.3769    0.5647 C   0  0  0  0  0  0  0  0  0  0  0  0
    4.0799   -1.7770   -0.9143 C   0  0  0  0  0  0  0  0  0  0  0  0
    4.9139   -0.7645   -1.7012 C   0  0  0  0  0  0  0  0  0  0  0  0
    4.7390   -3.1582   -0.9987 C   0  0  0  0  0  0  0  0  0  0  0  0
    4.2199    7.6868    7.7118 C   0  0  0  0  0  0  0  0  0  0  0  0
    3.9283    9.0466    7.5841 C   0  0  0  0  0  0  0  0  0  0  0  0
    2.6774   10.5218    6.6331 H   0  0  0  0  0  0  0  0  0  0  0  0
    1.3661    8.8412    5.3570 H   0  0  0  0  0  0  0  0  0  0  0  0
    1.8826    6.4367    5.5726 H   0  0  0  0  0  0  0  0  0  0  0  0
    3.0408    4.7978    7.7840 H   0  0  0  0  0  0  0  0  0  0  0  0
    4.7885    5.1415    7.6089 H   0  0  0  0  0  0  0  0  0  0  0  0
    4.0267    3.4659    3.8263 H   0  0  0  0  0  0  0  0  0  0  0  0
    4.4680    0.8055    4.7339 H   0  0  0  0  0  0  0  0  0  0  0  0
    6.0160    1.6687    4.4590 H   0  0  0  0  0  0  0  0  0  0  0  0
    2.5839    0.7618    2.6375 H   0  0  0  0  0  0  0  0  0  0  0  0
    3.5349    0.7523    0.1481 H   0  0  0  0  0  0  0  0  0  0  0  0
    1.8900    0.2215   -1.4245 H   0  0  0  0  0  0  0  0  0  0  0  0
   -0.6004   -1.0120   -0.6019 H   0  0  0  0  0  0  0  0  0  0  0  0
   -0.4187    1.8843   -1.6316 H   0  0  0  0  0  0  0  0  0  0  0  0
   -1.9003    0.9533   -1.7105 H   0  0  0  0  0  0  0  0  0  0  0  0
   -0.4673    1.6942    0.8919 H   0  0  0  0  0  0  0  0  0  0  0  0
   -1.3823    3.6673   -0.2850 H   0  0  0  0  0  0  0  0  0  0  0  0
   -2.9661    2.8868   -0.4063 H   0  0  0  0  0  0  0  0  0  0  0  0
   -2.3049    3.3204    1.1832 H   0  0  0  0  0  0  0  0  0  0  0  0
   -3.2265    0.4301    0.4289 H   0  0  0  0  0  0  0  0  0  0  0  0
   -1.8298   -0.3862    1.1556 H   0  0  0  0  0  0  0  0  0  0  0  0
   -2.5805    0.9745    1.9841 H   0  0  0  0  0  0  0  0  0  0  0  0
    4.9006   -1.3488    1.0313 H   0  0  0  0  0  0  0  0  0  0  0  0
    3.3633   -2.1772    1.0836 H   0  0  0  0  0  0  0  0  0  0  0  0
    3.0950   -1.8563   -1.3881 H   0  0  0  0  0  0  0  0  0  0  0  0
    5.8830   -0.5907   -1.2210 H   0  0  0  0  0  0  0  0  0  0  0  0
    4.3989    0.1966   -1.7921 H   0  0  0  0  0  0  0  0  0  0  0  0
    5.1015   -1.1235   -2.7183 H   0  0  0  0  0  0  0  0  0  0  0  0
    5.7313   -3.1554   -0.5339 H   0  0  0  0  0  0  0  0  0  0  0  0
    4.1284   -3.9127   -0.4912 H   0  0  0  0  0  0  0  0  0  0  0  0
    4.8549   -3.4705   -2.0409 H   0  0  0  0  0  0  0  0  0  0  0  0
    5.0298    7.3775    8.3695 H   0  0  0  0  0  0  0  0  0  0  0  0
    4.5074    9.7788    8.1385 H   0  0  0  0  0  0  0  0  0  0  0  0
 33  1  1  0
  1  2  2  0
  2 34  1  0
  2  3  1  0
  3 35  1  0
  3  4  2  0
  4  5  1  0
  5 36  1  0
  5 37  1  0
  5  6  1  0
  6  7  1  0
  7  8  2  0
  7  9  1  0
  9 38  1  0
  9 10  1  0
 10 39  1  0
 10 40  1  0
 10 11  1  0
 11 12  2  0
 11 13  1  6
 11 14  1  0
 14 41  1  1
 14 15  1  0
 15 42  1  6
 15 16  1  0
 16 17  2  0
 16 18  1  0
 18 43  1  0
 18 19  1  0
 19 44  1  1
 19 20  1  0
 20 21  2  0
 20 22  1  0
 19 23  1  0
 23 45  1  0
 23 46  1  0
 23 24  1  0
 24 47  1  0
 24 25  1  0
 25 48  1  0
 25 49  1  0
 25 50  1  0
 24 26  1  0
 26 51  1  0
 26 52  1  0
 26 53  1  0
 15 27  1  0
 27 54  1  0
 27 55  1  0
 27 28  1  0
 28 56  1  0
 28 29  1  0
 29 57  1  0
 29 58  1  0
 29 59  1  0
 28 30  1  0
 30 60  1  0
 30 61  1  0
 30 62  1  0
  4 31  1  0
 31 63  1  0
  1 32  1  0
 31 32  2  0
 32 64  1  0
M  CHG  2  13  -1  22  -1
M  END
>  <conformer_energy>  (1) 
21.54

>  <ligand_smiles>  (1) 
CC(C)C[C@H](NC(=O)[C@H](CC(C)C)N[P@@](=O)([O-])CNC(=O)OCc1ccccc1)C(=O)[O-]

>  <ligand_conf_name>  (1) 
MOL_0_isomer_0_chiral_N_isomer_0_conf_0

>  <ligand_molecule_name>  (1) 
MOL_0_isomer_0_chiral_N_isomer_0

$$$$
MOL_0_isomer_0_chiral_N_isomer_1_conf_0
     RDKit          3D

 64 64  0  0  0  0  0  0  0  0999 V2000
    2.7003    9.6949    5.9283 C   0  0  0  0  0  0  0  0  0  0  0  0
    1.5342    9.0714    5.4870 C   0  0  0  0  0  0  0  0  0  0  0  0
    1.4067    7.6831    5.5728 C   0  0  0  0  0  0  0  0  0  0  0  0
    2.4417    6.9076    6.1123 C   0  0  0  0  0  0  0  0  0  0  0  0
    2.3135    5.4060    6.2015 C   0  0  0  0  0  0  0  0  0  0  0  0
    2.8124    4.8295    4.9976 O   0  0  0  0  0  0  0  0  0  0  0  0
    2.9507    3.4782    5.0678 C   0  0  0  0  0  0  0  0  0  0  0  0
    2.6826    2.8081    6.0565 O   0  0  0  0  0  0  0  0  0  0  0  0
    3.4131    3.0089    3.8923 N   0  0  0  0  0  0  0  0  0  0  0  0
    3.6989    1.6062    3.6147 C   0  0  0  0  0  0  0  0  0  0  0  0
    4.8803    1.5597    2.2082 P   0  0  2  0  0  5  0  0  0  0  0  0
    6.2889    1.7388    2.7282 O   0  0  0  0  0  0  0  0  0  0  0  0
    4.3563    2.4379    1.1002 O   0  0  0  0  0  1  0  0  0  0  0  0
    4.8697   -0.0809    1.6604 N   0  0  0  0  0  0  0  0  0  0  0  0
    3.9772   -0.4151    0.5197 C   0  0  2  0  0  0  0  0  0  0  0  0
    2.4861   -0.4444    0.9132 C   0  0  0  0  0  0  0  0  0  0  0  0
    2.0821   -0.8898    1.9882 O   0  0  0  0  0  0  0  0  0  0  0  0
    1.6372    0.0022   -0.0739 N   0  0  0  0  0  0  0  0  0  0  0  0
    0.1653   -0.0505   -0.0316 C   0  0  2  0  0  0  0  0  0  0  0  0
   -0.4526   -0.4491   -1.4213 C   0  0  0  0  0  0  0  0  0  0  0  0
    0.3489   -0.3827   -2.4061 O   0  0  0  0  0  0  0  0  0  0  0  0
   -1.6690   -0.7996   -1.4087 O   0  0  0  0  0  1  0  0  0  0  0  0
   -0.4270    1.3308    0.3074 C   0  0  0  0  0  0  0  0  0  0  0  0
   -0.0829    1.8632    1.7159 C   0  0  0  0  0  0  0  0  0  0  0  0
   -0.5395    3.3190    1.8531 C   0  0  0  0  0  0  0  0  0  0  0  0
   -0.7215    1.0209    2.8240 C   0  0  0  0  0  0  0  0  0  0  0  0
    4.3975   -1.8073    0.0006 C   0  0  0  0  0  0  0  0  0  0  0  0
    3.7595   -2.2517   -1.3339 C   0  0  0  0  0  0  0  0  0  0  0  0
    4.1424   -1.3392   -2.5002 C   0  0  0  0  0  0  0  0  0  0  0  0
    4.1819   -3.6911   -1.6489 C   0  0  0  0  0  0  0  0  0  0  0  0
    3.6182    7.5436    6.5355 C   0  0  0  0  0  0  0  0  0  0  0  0
    3.7437    8.9319    6.4488 C   0  0  0  0  0  0  0  0  0  0  0  0
    2.7989   10.7742    5.8488 H   0  0  0  0  0  0  0  0  0  0  0  0
    0.7302    9.6647    5.0617 H   0  0  0  0  0  0  0  0  0  0  0  0
    0.5018    7.2033    5.2052 H   0  0  0  0  0  0  0  0  0  0  0  0
    1.2582    5.1294    6.3307 H   0  0  0  0  0  0  0  0  0  0  0  0
    2.8715    5.0479    7.0786 H   0  0  0  0  0  0  0  0  0  0  0  0
    3.5718    3.6481    3.1163 H   0  0  0  0  0  0  0  0  0  0  0  0
    2.7545    1.1315    3.3485 H   0  0  0  0  0  0  0  0  0  0  0  0
    4.1222    1.1154    4.4970 H   0  0  0  0  0  0  0  0  0  0  0  0
    5.8507   -0.3380    1.5763 H   0  0  0  0  0  0  0  0  0  0  0  0
    4.1425    0.3293   -0.2660 H   0  0  0  0  0  0  0  0  0  0  0  0
    2.0025    0.2766   -0.9802 H   0  0  0  0  0  0  0  0  0  0  0  0
   -0.1374   -0.8062    0.7012 H   0  0  0  0  0  0  0  0  0  0  0  0
   -0.0681    2.0580   -0.4382 H   0  0  0  0  0  0  0  0  0  0  0  0
   -1.5200    1.3026    0.1970 H   0  0  0  0  0  0  0  0  0  0  0  0
    1.0034    1.8507    1.8510 H   0  0  0  0  0  0  0  0  0  0  0  0
   -0.0502    3.9551    1.1045 H   0  0  0  0  0  0  0  0  0  0  0  0
   -1.6231    3.4093    1.7180 H   0  0  0  0  0  0  0  0  0  0  0  0
   -0.2829    3.7150    2.8444 H   0  0  0  0  0  0  0  0  0  0  0  0
   -1.8122    1.0013    2.7209 H   0  0  0  0  0  0  0  0  0  0  0  0
   -0.3646   -0.0137    2.8081 H   0  0  0  0  0  0  0  0  0  0  0  0
   -0.4803    1.4331    3.8133 H   0  0  0  0  0  0  0  0  0  0  0  0
    5.4903   -1.8302   -0.1101 H   0  0  0  0  0  0  0  0  0  0  0  0
    4.1589   -2.5573    0.7677 H   0  0  0  0  0  0  0  0  0  0  0  0
    2.6671   -2.2451   -1.2385 H   0  0  0  0  0  0  0  0  0  0  0  0
    5.2305   -1.2693   -2.6008 H   0  0  0  0  0  0  0  0  0  0  0  0
    3.7465   -0.3281   -2.3675 H   0  0  0  0  0  0  0  0  0  0  0  0
    3.7360   -1.7188   -3.4462 H   0  0  0  0  0  0  0  0  0  0  0  0
    5.2668   -3.7669   -1.7783 H   0  0  0  0  0  0  0  0  0  0  0  0
    3.8895   -4.3721   -0.8414 H   0  0  0  0  0  0  0  0  0  0  0  0
    3.7048   -4.0451   -2.5693 H   0  0  0  0  0  0  0  0  0  0  0  0
    4.4455    6.9522    6.9224 H   0  0  0  0  0  0  0  0  0  0  0  0
    4.6617    9.4136    6.7748 H   0  0  0  0  0  0  0  0  0  0  0  0
 33  1  1  0
  1  2  2  0
  2 34  1  0
  2  3  1  0
  3 35  1  0
  3  4  2  0
  4  5  1  0
  5 36  1  0
  5 37  1  0
  5  6  1  0
  6  7  1  0
  7  8  2  0
  7  9  1  0
  9 38  1  0
  9 10  1  0
 10 39  1  0
 10 40  1  0
 10 11  1  0
 11 12  2  0
 11 13  1  6
 11 14  1  0
 14 41  1  1
 14 15  1  0
 15 42  1  6
 15 16  1  0
 16 17  2  0
 16 18  1  0
 18 43  1  0
 18 19  1  0
 19 44  1  1
 19 20  1  0
 20 21  2  0
 20 22  1  0
 19 23  1  0
 23 45  1  0
 23 46  1  0
 23 24  1  0
 24 47  1  0
 24 25  1  0
 25 48  1  0
 25 49  1  0
 25 50  1  0
 24 26  1  0
 26 51  1  0
 26 52  1  0
 26 53  1  0
 15 27  1  0
 27 54  1  0
 27 55  1  0
 27 28  1  0
 28 56  1  0
 28 29  1  0
 29 57  1  0
 29 58  1  0
 29 59  1  0
 28 30  1  0
 30 60  1  0
 30 61  1  0
 30 62  1  0
  4 31  1  0
 31 63  1  0
  1 32  1  0
 31 32  2  0
 32 64  1  0
M  CHG  2  13  -1  22  -1
M  END
>  <conformer_energy>  (2) 
22.46

>  <ligand_smiles>  (2) 
CC(C)C[C@H](NC(=O)[C@H](CC(C)C)N[P@@](=O)([O-])CNC(=O)OCc1ccccc1)C(=O)[O-]

>  <ligand_conf_name>  (2) 
MOL_0_isomer_0_chiral_N_isomer_1_conf_0

>  <ligand_molecule_name>  (2) 
MOL_0_isomer_0_chiral_N_isomer_1

$$$$
