MOL_0_isomer_0_conf_0
     RDKit          3D

 32 34  0  0  0  0  0  0  0  0999 V2000
   -0.7725    0.4438    1.0548 C   0  0  0  0  0  0  0  0  0  0  0  0
   -2.0523    0.4978    0.7475 N   0  0  0  0  0  0  0  0  0  0  0  0
   -2.0912    0.2135   -0.5922 C   0  0  0  0  0  0  0  0  0  0  0  0
   -3.1885    0.1179   -1.5164 C   0  0  0  0  0  0  0  0  0  0  0  0
   -4.7592    0.3648   -1.0535 S   0  0  0  0  0  0  0  0  0  0  0  0
   -2.8099   -0.1956   -2.8096 N   0  0  0  0  0  0  0  0  0  0  0  0
   -1.4968   -0.4009   -3.1913 C   0  0  0  0  0  0  0  0  0  0  0  0
   -1.2909   -0.6997   -4.4916 N   0  0  0  0  0  0  0  0  0  0  0  0
   -0.4813   -0.3204   -2.3735 N   0  0  0  0  0  0  0  0  0  0  0  0
   -0.8288   -0.0138   -1.0988 C   0  0  0  0  0  0  0  0  0  0  0  0
    0.0121    0.1366   -0.0318 N   0  0  0  0  0  0  0  0  0  0  0  0
    1.4615    0.0063   -0.0050 C   0  0  0  0  0  0  0  0  0  0  0  0
    1.9301   -1.4168   -0.3458 C   0  0  0  0  0  0  0  0  0  0  0  0
    3.4511   -1.5347   -0.2699 C   0  0  0  0  0  0  0  0  0  0  0  0
    4.1415   -0.4897   -1.1419 C   0  0  0  0  0  0  0  0  0  0  0  0
    3.6820    0.9246   -0.7985 C   0  0  0  0  0  0  0  0  0  0  0  0
    2.1625    1.0587   -0.8779 C   0  0  0  0  0  0  0  0  0  0  0  0
   -0.3604    0.6170    2.0407 H   0  0  0  0  0  0  0  0  0  0  0  0
   -3.5465   -0.2729   -3.4907 H   0  0  0  0  0  0  0  0  0  0  0  0
   -0.3357   -0.8533   -4.7893 H   0  0  0  0  0  0  0  0  0  0  0  0
   -2.0254   -0.7779   -5.1764 H   0  0  0  0  0  0  0  0  0  0  0  0
    1.7552    0.2025    1.0364 H   0  0  0  0  0  0  0  0  0  0  0  0
    1.4733   -2.1383    0.3426 H   0  0  0  0  0  0  0  0  0  0  0  0
    1.6043   -1.6999   -1.3539 H   0  0  0  0  0  0  0  0  0  0  0  0
    3.7586   -2.5385   -0.5844 H   0  0  0  0  0  0  0  0  0  0  0  0
    3.7749   -1.4132    0.7712 H   0  0  0  0  0  0  0  0  0  0  0  0
    5.2275   -0.5645   -1.0157 H   0  0  0  0  0  0  0  0  0  0  0  0
    3.9272   -0.6965   -2.1977 H   0  0  0  0  0  0  0  0  0  0  0  0
    4.1509    1.6408   -1.4826 H   0  0  0  0  0  0  0  0  0  0  0  0
    4.0185    1.1823    0.2133 H   0  0  0  0  0  0  0  0  0  0  0  0
    1.8680    2.0668   -0.5612 H   0  0  0  0  0  0  0  0  0  0  0  0
    1.8540    0.9595   -1.9255 H   0  0  0  0  0  0  0  0  0  0  0  0
 18  1  1  0
  1  2  2  0
  2  3  1  0
  3  4  1  0
  4  5  2  0
  4  6  1  0
  6 19  1  0
  6  7  1  0
  7  8  1  0
  8 20  1  0
  8 21  1  0
  7  9  2  0
  3 10  2  0
  9 10  1  0
  1 11  1  0
 10 11  1  0
 11 12  1  0
 12 22  1  0
 12 13  1  0
 13 23  1  0
 13 24  1  0
 13 14  1  0
 14 25  1  0
 14 26  1  0
 14 15  1  0
 15 27  1  0
 15 28  1  0
 15 16  1  0
 16 29  1  0
 16 30  1  0
 12 17  1  0
 16 17  1  0
 17 31  1  0
 17 32  1  0
M  END
>  <conformer_energy>  (1) 
-61.67

>  <ligand_smiles>  (1) 
Nc1nc2c(ncn2C2CCCCC2)c(=S)[nH]1

>  <ligand_conf_name>  (1) 
MOL_0_isomer_0_conf_0

>  <ligand_molecule_name>  (1) 
MOL_0_isomer_0

$$$$
