MOL_0_isomer_0_conf_0
     RDKit          3D

 45 48  0  0  0  0  0  0  0  0999 V2000
    3.7814   -3.1326    1.7546 C   0  0  0  0  0  0  0  0  0  0  0  0
    2.4016   -3.2404    1.7851 C   0  0  0  0  0  0  0  0  0  0  0  0
    1.6766   -4.2602    2.3342 O   0  0  0  0  0  0  0  0  0  0  0  0
    2.4142   -5.3204    2.9357 C   0  0  0  0  0  0  0  0  0  0  0  0
    1.6366   -2.2279    1.2087 C   0  0  0  0  0  0  0  0  0  0  0  0
    2.2116   -1.0919    0.5920 C   0  0  0  0  0  0  0  0  0  0  0  0
    1.4266   -0.0486   -0.0019 C   0  0  0  0  0  0  0  0  0  0  0  0
    0.0316   -0.0378   -0.0370 N   0  0  0  0  0  0  0  0  0  0  0  0
   -0.6618    0.2988    1.2129 C   0  0  0  0  0  0  0  0  0  0  0  0
   -2.1105    0.7371    0.9237 C   0  0  0  0  0  0  0  0  0  0  0  0
   -2.8000   -0.2704    0.0328 N   0  0  0  0  0  4  0  0  0  0  0  0
   -2.0648   -0.4776   -1.2714 C   0  0  0  0  0  0  0  0  0  0  0  0
   -0.6155   -0.9299   -1.0074 C   0  0  0  0  0  0  0  0  0  0  0  0
    2.1443    1.0200   -0.5784 C   0  0  0  0  0  0  0  0  0  0  0  0
    1.8603    2.2388   -1.2591 C   0  0  0  0  0  0  0  0  0  0  0  0
    0.5364    2.8090   -1.6024 C   0  0  0  0  0  0  0  0  0  0  0  0
    2.9747    2.9006   -1.6021 N   0  0  0  0  0  0  0  0  0  0  0  0
    3.9654    2.1105   -1.1440 N   0  0  0  0  0  0  0  0  0  0  0  0
    3.5217    0.9788   -0.5268 C   0  0  0  0  0  0  0  0  0  0  0  0
    4.2910    0.0295    0.0149 N   0  0  0  0  0  0  0  0  0  0  0  0
    3.6307   -0.9948    0.5681 C   0  0  0  0  0  0  0  0  0  0  0  0
    4.3909   -2.0179    1.1506 C   0  0  0  0  0  0  0  0  0  0  0  0
    5.8987   -1.9356    1.1369 C   0  0  0  0  0  0  0  0  0  0  0  0
    4.4161   -3.8978    2.1916 H   0  0  0  0  0  0  0  0  0  0  0  0
    1.6953   -6.0486    3.3232 H   0  0  0  0  0  0  0  0  0  0  0  0
    3.0091   -4.9567    3.7800 H   0  0  0  0  0  0  0  0  0  0  0  0
    3.0421   -5.8311    2.1982 H   0  0  0  0  0  0  0  0  0  0  0  0
    0.5604   -2.3467    1.2517 H   0  0  0  0  0  0  0  0  0  0  0  0
   -0.6788   -0.5659    1.8852 H   0  0  0  0  0  0  0  0  0  0  0  0
   -0.1491    1.1162    1.7344 H   0  0  0  0  0  0  0  0  0  0  0  0
   -2.6998    0.8075    1.8423 H   0  0  0  0  0  0  0  0  0  0  0  0
   -2.1429    1.6950    0.3941 H   0  0  0  0  0  0  0  0  0  0  0  0
   -3.7603    0.0409   -0.1595 H   0  0  0  0  0  0  0  0  0  0  0  0
   -2.8717   -1.1685    0.5283 H   0  0  0  0  0  0  0  0  0  0  0  0
   -2.0972    0.4792   -1.8028 H   0  0  0  0  0  0  0  0  0  0  0  0
   -2.6232   -1.2288   -1.8372 H   0  0  0  0  0  0  0  0  0  0  0  0
   -0.6263   -1.9590   -0.6323 H   0  0  0  0  0  0  0  0  0  0  0  0
   -0.0721   -0.9283   -1.9601 H   0  0  0  0  0  0  0  0  0  0  0  0
    0.6317    3.7643   -2.1292 H   0  0  0  0  0  0  0  0  0  0  0  0
   -0.0513    2.9840   -0.6959 H   0  0  0  0  0  0  0  0  0  0  0  0
   -0.0188    2.1236   -2.2503 H   0  0  0  0  0  0  0  0  0  0  0  0
    4.9288    2.3921   -1.2797 H   0  0  0  0  0  0  0  0  0  0  0  0
    6.3548   -2.8021    1.6273 H   0  0  0  0  0  0  0  0  0  0  0  0
    6.2347   -1.0406    1.6708 H   0  0  0  0  0  0  0  0  0  0  0  0
    6.2679   -1.9083    0.1064 H   0  0  0  0  0  0  0  0  0  0  0  0
 24  1  1  0
  1  2  2  0
  2  3  1  0
  3  4  1  0
  4 25  1  0
  4 26  1  0
  4 27  1  0
  2  5  1  0
  5 28  1  0
  5  6  2  0
  6  7  1  0
  7  8  1  0
  8  9  1  0
  9 29  1  0
  9 30  1  0
  9 10  1  0
 10 31  1  0
 10 32  1  0
 10 11  1  0
 11 33  1  0
 11 34  1  0
 11 12  1  0
 12 35  1  0
 12 36  1  0
  8 13  1  0
 12 13  1  0
 13 37  1  0
 13 38  1  0
  7 14  2  0
 14 15  1  0
 15 16  1  0
 16 39  1  0
 16 40  1  0
 16 41  1  0
 15 17  2  0
 17 18  1  0
 18 42  1  0
 14 19  1  0
 18 19  1  0
 19 20  2  0
  6 21  1  0
 20 21  1  0
  1 22  1  0
 21 22  2  0
 22 23  1  0
 23 43  1  0
 23 44  1  0
 23 45  1  0
M  CHG  1  11   1
M  END
>  <conformer_energy>  (1) 
175.02

>  <ligand_smiles>  (1) 
COc1cc(C)c2nc3[nH]nc(C)c3c(N3CC[NH2+]CC3)c2c1

>  <ligand_conf_name>  (1) 
MOL_0_isomer_0_conf_0

>  <ligand_molecule_name>  (1) 
MOL_0_isomer_0

$$$$
