MOL_0_isomer_0_conf_0
     RDKit          3D

 35 36  0  0  0  0  0  0  0  0999 V2000
    5.7251    0.2395    2.5633 C   0  0  0  0  0  0  0  0  0  0  0  0
    6.4719    0.2749    1.3862 C   0  0  0  0  0  0  0  0  0  0  0  0
    5.8382    0.0810    0.1592 C   0  0  0  0  0  0  0  0  0  0  0  0
    4.4563   -0.1460    0.1210 C   0  0  0  0  0  0  0  0  0  0  0  0
    3.7518   -0.3752   -1.1485 C   0  0  0  0  0  0  0  0  0  0  0  0
    4.4085   -0.4419   -2.1871 O   0  0  0  0  0  0  0  0  0  0  0  0
    2.3694   -0.5491   -1.0773 N   0  0  0  0  0  0  0  0  0  0  0  0
    1.7228   -0.8622   -2.3508 C   0  0  0  0  0  0  0  0  0  0  0  0
    1.4371    0.3248   -3.2766 C   0  0  0  0  0  0  0  0  0  0  0  0
    1.3117    0.1483   -4.4926 O   0  0  0  0  0  0  0  0  0  0  0  0
    1.1879    1.5351   -2.6881 N   0  0  0  0  0  0  0  0  0  0  0  0
    0.8673    2.7117   -3.4479 C   0  0  0  0  0  0  0  0  0  0  0  0
    1.7074   -0.5081    0.1381 C   0  0  0  0  0  0  0  0  0  0  0  0
    0.1861   -0.6628    0.1843 C   0  0  0  0  0  0  0  0  0  0  0  0
   -0.4683    0.2798    1.1909 C   0  0  0  0  0  0  0  0  0  0  0  0
   -0.3085    1.7498    0.8050 C   0  0  0  0  0  0  0  0  0  0  0  0
    0.3591    1.9793   -0.2450 O   0  0  0  0  0  0  0  0  0  0  0  0
   -0.8938    2.5638    1.5709 O   0  0  0  0  0  1  0  0  0  0  0  0
    2.3257   -0.4008    1.2753 N   0  0  0  0  0  0  0  0  0  0  0  0
    3.7033   -0.1878    1.2861 C   0  0  0  0  0  0  0  0  0  0  0  0
    4.3473    0.0094    2.5101 C   0  0  0  0  0  0  0  0  0  0  0  0
    6.2079    0.3994    3.5234 H   0  0  0  0  0  0  0  0  0  0  0  0
    7.5419    0.4592    1.4230 H   0  0  0  0  0  0  0  0  0  0  0  0
    6.4120    0.1107   -0.7636 H   0  0  0  0  0  0  0  0  0  0  0  0
    0.7903   -1.4102   -2.1990 H   0  0  0  0  0  0  0  0  0  0  0  0
    2.3799   -1.5411   -2.9100 H   0  0  0  0  0  0  0  0  0  0  0  0
    1.0447    1.6142   -1.6645 H   0  0  0  0  0  0  0  0  0  0  0  0
   -0.1993    2.6924   -3.6863 H   0  0  0  0  0  0  0  0  0  0  0  0
    1.4471    2.7385   -4.3743 H   0  0  0  0  0  0  0  0  0  0  0  0
    1.0936    3.5921   -2.8419 H   0  0  0  0  0  0  0  0  0  0  0  0
   -0.0224   -1.7002    0.4713 H   0  0  0  0  0  0  0  0  0  0  0  0
   -0.2772   -0.4945   -0.7894 H   0  0  0  0  0  0  0  0  0  0  0  0
   -0.0547    0.1354    2.1955 H   0  0  0  0  0  0  0  0  0  0  0  0
   -1.5406    0.0568    1.2437 H   0  0  0  0  0  0  0  0  0  0  0  0
    3.7591   -0.0045    3.4242 H   0  0  0  0  0  0  0  0  0  0  0  0
 22  1  1  0
  1  2  2  0
  2 23  1  0
  2  3  1  0
  3 24  1  0
  3  4  2  0
  4  5  1  0
  5  6  2  0
  5  7  1  0
  7  8  1  0
  8 25  1  0
  8 26  1  0
  8  9  1  0
  9 10  2  0
  9 11  1  0
 11 27  1  0
 11 12  1  0
 12 28  1  0
 12 29  1  0
 12 30  1  0
  7 13  1  0
 13 14  1  0
 14 31  1  0
 14 32  1  0
 14 15  1  0
 15 33  1  0
 15 34  1  0
 15 16  1  0
 16 17  2  0
 16 18  1  0
 13 19  2  0
  4 20  1  0
 19 20  1  0
  1 21  1  0
 20 21  2  0
 21 35  1  0
M  CHG  1  18  -1
M  END
>  <conformer_energy>  (1) 
-33.53

>  <ligand_smiles>  (1) 
CNC(=O)Cn1c(CCC(=O)[O-])nc2ccccc2c1=O

>  <ligand_conf_name>  (1) 
MOL_0_isomer_0_conf_0

>  <ligand_molecule_name>  (1) 
MOL_0_isomer_0

$$$$
