MOL_0_isomer_0_conf_0
     RDKit          3D

 38 41  0  0  0  0  0  0  0  0999 V2000
    9.6962    0.3013    2.1903 C   0  0  0  0  0  0  0  0  0  0  0  0
    8.5367    0.1408    2.9445 C   0  0  0  0  0  0  0  0  0  0  0  0
    7.2925    0.0977    2.3118 C   0  0  0  0  0  0  0  0  0  0  0  0
    7.1968    0.2146    0.9169 C   0  0  0  0  0  0  0  0  0  0  0  0
    5.8397    0.1631    0.2747 C   0  0  0  0  0  0  0  0  0  0  0  0
    4.7918    0.0562    1.0361 N   0  0  0  0  0  0  0  0  0  0  0  0
    3.5640    0.0030    0.4585 C   0  0  0  0  0  0  0  0  0  0  0  0
    2.2973   -0.1183    1.0051 C   0  0  0  0  0  0  0  0  0  0  0  0
    2.0344   -0.2206    2.4299 C   0  0  0  0  0  0  0  0  0  0  0  0
    2.5207    0.7514    3.3139 C   0  0  0  0  0  0  0  0  0  0  0  0
    2.2531    0.6607    4.6815 C   0  0  0  0  0  0  0  0  0  0  0  0
    1.4993   -0.4020    5.1756 C   0  0  0  0  0  0  0  0  0  0  0  0
    1.0159   -1.3767    4.3044 C   0  0  0  0  0  0  0  0  0  0  0  0
    1.2827   -1.2883    2.9359 C   0  0  0  0  0  0  0  0  0  0  0  0
    1.3975   -0.1134   -0.1009 C   0  0  0  0  0  0  0  0  0  0  0  0
   -0.1054   -0.1926   -0.0379 C   0  0  0  0  0  0  0  0  0  0  0  0
   -0.6237    0.6653    0.8822 F   0  0  0  0  0  0  0  0  0  0  0  0
   -0.5287   -1.4385    0.3113 F   0  0  0  0  0  0  0  0  0  0  0  0
   -0.7119    0.1039   -1.2185 F   0  0  0  0  0  0  0  0  0  0  0  0
    2.0692   -0.0186   -1.2656 N   0  0  0  0  0  0  0  0  0  0  0  0
    3.3738    0.0526   -0.9046 N   0  0  0  0  0  0  0  0  0  0  0  0
    4.3949    0.1646   -1.8445 C   0  0  0  0  0  0  0  0  0  0  0  0
    4.1669    0.2006   -3.0485 O   0  0  0  0  0  0  0  0  0  0  0  0
    5.7564    0.2397   -1.2338 C   0  0  0  0  0  0  0  0  0  0  0  0
    8.3692    0.3754    0.1668 C   0  0  0  0  0  0  0  0  0  0  0  0
    9.6132    0.4184    0.8042 C   0  0  0  0  0  0  0  0  0  0  0  0
   10.6650    0.3346    2.6830 H   0  0  0  0  0  0  0  0  0  0  0  0
    8.5981    0.0480    4.0262 H   0  0  0  0  0  0  0  0  0  0  0  0
    6.3993   -0.0307    2.9210 H   0  0  0  0  0  0  0  0  0  0  0  0
    3.1121    1.5865    2.9449 H   0  0  0  0  0  0  0  0  0  0  0  0
    2.6335    1.4200    5.3598 H   0  0  0  0  0  0  0  0  0  0  0  0
    1.2907   -0.4724    6.2401 H   0  0  0  0  0  0  0  0  0  0  0  0
    0.4324   -2.2089    4.6903 H   0  0  0  0  0  0  0  0  0  0  0  0
    0.9073   -2.0702    2.2798 H   0  0  0  0  0  0  0  0  0  0  0  0
    6.3411   -0.5871   -1.6532 H   0  0  0  0  0  0  0  0  0  0  0  0
    6.1959    1.1916   -1.5535 H   0  0  0  0  0  0  0  0  0  0  0  0
    8.3529    0.4713   -0.9145 H   0  0  0  0  0  0  0  0  0  0  0  0
   10.5206    0.5435    0.2176 H   0  0  0  0  0  0  0  0  0  0  0  0
 27  1  1  0
  1  2  2  0
  2 28  1  0
  2  3  1  0
  3 29  1  0
  3  4  2  0
  4  5  1  0
  5  6  2  0
  6  7  1  0
  7  8  2  0
  8  9  1  0
  9 10  2  0
 10 30  1  0
 10 11  1  0
 11 31  1  0
 11 12  2  0
 12 32  1  0
 12 13  1  0
 13 33  1  0
  9 14  1  0
 13 14  2  0
 14 34  1  0
  8 15  1  0
 15 16  1  0
 16 17  1  0
 16 18  1  0
 16 19  1  0
 15 20  2  0
  7 21  1  0
 20 21  1  0
 21 22  1  0
 22 23  2  0
  5 24  1  0
 22 24  1  0
 24 35  1  0
 24 36  1  0
  4 25  1  0
 25 37  1  0
  1 26  1  0
 25 26  2  0
 26 38  1  0
M  END
>  <conformer_energy>  (1) 
174.75

>  <ligand_smiles>  (1) 
O=C1CC(c2ccccc2)=Nc2c(-c3ccccc3)c(C(F)(F)F)nn21

>  <ligand_conf_name>  (1) 
MOL_0_isomer_0_conf_0

>  <ligand_molecule_name>  (1) 
MOL_0_isomer_0

$$$$
