MOL_0_isomer_0_conf_0
     RDKit          3D

 67 71  0  0  0  0  0  0  0  0999 V2000
   -0.4886   -1.9879    8.2333 C   0  0  0  0  0  0  0  0  0  0  0  0
   -1.2606   -2.8583    7.4462 C   0  0  0  0  0  0  0  0  0  0  0  0
   -2.6372   -2.9798    7.5979 N   0  0  0  0  0  0  0  0  0  0  0  0
   -3.4072   -2.1048    8.4913 C   0  0  0  0  0  0  0  0  0  0  0  0
   -3.4543   -2.6707    9.9032 C   0  0  0  0  0  0  0  0  0  0  0  0
   -3.4164   -3.9839    6.8604 C   0  0  0  0  0  0  0  0  0  0  0  0
   -3.8476   -3.4533    5.5005 C   0  0  0  0  0  0  0  0  0  0  0  0
   -0.5399   -3.5935    6.4953 C   0  0  0  0  0  0  0  0  0  0  0  0
    0.8485   -3.4539    6.3467 C   0  0  0  0  0  0  0  0  0  0  0  0
    1.4417   -4.2414    5.3487 O   0  0  0  0  0  0  0  0  0  0  0  0
    2.7956   -4.1673    5.0865 C   0  0  0  0  0  0  0  0  0  0  0  0
    3.2919   -4.8273    4.1777 O   0  0  0  0  0  0  0  0  0  0  0  0
    3.6198   -3.2601    5.9360 C   0  0  0  0  0  0  0  0  0  0  0  0
    5.1028   -3.2864    5.6130 C   0  0  0  0  0  0  0  0  0  0  0  0
    5.5307   -2.2059    4.6086 C   0  0  0  0  0  0  0  0  0  0  0  0
    5.0899   -2.4794    3.2561 N   0  0  0  0  0  0  0  0  0  0  0  0
    5.7654   -3.2685    2.3760 C   0  0  0  0  0  0  0  0  0  0  0  0
    6.8313   -3.8332    2.5551 O   0  0  0  0  0  0  0  0  0  0  0  0
    5.0521   -3.3257    1.2023 N   0  0  0  0  0  0  0  0  0  0  0  0
    3.8384   -2.5497    1.2603 C   0  0  1  0  0  0  0  0  0  0  0  0
    3.9259   -2.0235    2.6988 C   0  0  0  0  0  0  0  0  0  0  0  0
    3.0966   -1.3158    3.2549 O   0  0  0  0  0  0  0  0  0  0  0  0
    3.7778   -1.4056    0.2542 C   0  0  0  0  0  0  0  0  0  0  0  0
    2.3727   -1.2704   -0.0903 N   0  0  0  0  0  0  0  0  0  0  0  0
    1.9329   -0.1744   -0.8181 C   0  0  0  0  0  0  0  0  0  0  0  0
    2.7437    0.6422   -1.2625 O   0  0  0  0  0  0  0  0  0  0  0  0
    0.4887    0.0074   -1.0422 C   0  0  0  0  0  0  0  0  0  0  0  0
   -0.5238   -0.8493   -0.6368 N   0  0  0  0  0  0  0  0  0  0  0  0
   -1.6472   -0.2995   -1.0346 C   0  0  0  0  0  0  0  0  0  0  0  0
   -1.4240    0.8817   -1.6774 N   0  0  0  0  0  0  0  0  0  0  0  0
   -0.0750    1.0886   -1.6985 C   0  0  0  0  0  0  0  0  0  0  0  0
    1.5713   -2.3211    0.5177 C   0  0  0  0  0  0  0  0  0  0  0  0
    2.5770   -3.3608    0.9991 C   0  0  0  0  0  0  0  0  0  0  0  0
    3.0583   -2.5028    6.9050 C   0  0  0  0  0  0  0  0  0  0  0  0
    3.8270   -1.5384    7.7723 C   0  0  0  0  0  0  0  0  0  0  0  0
    1.6021   -2.5911    7.1251 C   0  0  0  0  0  0  0  0  0  0  0  0
    0.9056   -1.8550    8.0834 C   0  0  0  0  0  0  0  0  0  0  0  0
   -0.9492   -1.3801    9.0067 H   0  0  0  0  0  0  0  0  0  0  0  0
   -4.4375   -2.0158    8.1227 H   0  0  0  0  0  0  0  0  0  0  0  0
   -3.0209   -1.0793    8.4897 H   0  0  0  0  0  0  0  0  0  0  0  0
   -4.0561   -2.0238   10.5495 H   0  0  0  0  0  0  0  0  0  0  0  0
   -2.4553   -2.7527   10.3414 H   0  0  0  0  0  0  0  0  0  0  0  0
   -3.9028   -3.6695    9.9113 H   0  0  0  0  0  0  0  0  0  0  0  0
   -4.3180   -4.2412    7.4316 H   0  0  0  0  0  0  0  0  0  0  0  0
   -2.8712   -4.9290    6.7598 H   0  0  0  0  0  0  0  0  0  0  0  0
   -4.4376   -4.2073    4.9705 H   0  0  0  0  0  0  0  0  0  0  0  0
   -2.9895   -3.1937    4.8732 H   0  0  0  0  0  0  0  0  0  0  0  0
   -4.4635   -2.5547    5.6076 H   0  0  0  0  0  0  0  0  0  0  0  0
   -1.0353   -4.2892    5.8266 H   0  0  0  0  0  0  0  0  0  0  0  0
    5.6825   -3.1592    6.5352 H   0  0  0  0  0  0  0  0  0  0  0  0
    5.4015   -4.2776    5.2489 H   0  0  0  0  0  0  0  0  0  0  0  0
    5.1497   -1.2247    4.9133 H   0  0  0  0  0  0  0  0  0  0  0  0
    6.6256   -2.1544    4.6003 H   0  0  0  0  0  0  0  0  0  0  0  0
    5.3775   -3.8785    0.4199 H   0  0  0  0  0  0  0  0  0  0  0  0
    4.1613   -0.4562    0.6444 H   0  0  0  0  0  0  0  0  0  0  0  0
    4.3205   -1.6412   -0.6691 H   0  0  0  0  0  0  0  0  0  0  0  0
   -2.6394   -0.7036   -0.8869 H   0  0  0  0  0  0  0  0  0  0  0  0
   -2.1306    1.4894   -2.0677 H   0  0  0  0  0  0  0  0  0  0  0  0
    0.3738    1.9615   -2.1509 H   0  0  0  0  0  0  0  0  0  0  0  0
    0.8784   -2.7567   -0.2063 H   0  0  0  0  0  0  0  0  0  0  0  0
    1.0106   -1.8875    1.3522 H   0  0  0  0  0  0  0  0  0  0  0  0
    2.2039   -3.9050    1.8714 H   0  0  0  0  0  0  0  0  0  0  0  0
    2.7550   -4.0925    0.2008 H   0  0  0  0  0  0  0  0  0  0  0  0
    3.7697   -1.8379    8.8247 H   0  0  0  0  0  0  0  0  0  0  0  0
    4.8873   -1.4683    7.5185 H   0  0  0  0  0  0  0  0  0  0  0  0
    3.4259   -0.5235    7.6689 H   0  0  0  0  0  0  0  0  0  0  0  0
    1.4140   -1.1560    8.7417 H   0  0  0  0  0  0  0  0  0  0  0  0
 38  1  1  0
  1  2  2  0
  2  3  1  0
  3  4  1  0
  4 39  1  0
  4 40  1  0
  4  5  1  0
  5 41  1  0
  5 42  1  0
  5 43  1  0
  3  6  1  0
  6 44  1  0
  6 45  1  0
  6  7  1  0
  7 46  1  0
  7 47  1  0
  7 48  1  0
  2  8  1  0
  8 49  1  0
  8  9  2  0
  9 10  1  0
 10 11  1  0
 11 12  2  0
 11 13  1  0
 13 14  1  0
 14 50  1  0
 14 51  1  0
 14 15  1  0
 15 52  1  0
 15 53  1  0
 15 16  1  0
 16 17  1  0
 17 18  2  0
 17 19  1  0
 19 54  1  0
 20 19  1  6
 16 21  1  0
 20 21  1  0
 21 22  2  0
 20 23  1  0
 23 55  1  0
 23 56  1  0
 23 24  1  0
 24 25  1  0
 25 26  2  0
 25 27  1  0
 27 28  1  0
 28 29  2  0
 29 57  1  0
 29 30  1  0
 30 58  1  0
 27 31  2  0
 30 31  1  0
 31 59  1  0
 24 32  1  0
 32 60  1  0
 32 61  1  0
 20 33  1  0
 32 33  1  0
 33 62  1  0
 33 63  1  0
 13 34  2  0
 34 35  1  0
 35 64  1  0
 35 65  1  0
 35 66  1  0
  9 36  1  0
 34 36  1  0
  1 37  1  0
 36 37  2  0
 37 67  1  0
M  END
>  <conformer_energy>  (1) 
8.15

>  <ligand_smiles>  (1) 
CCN(CC)c1ccc2c(C)c(CCN3C(=O)N[C@@]4(CCN(C(=O)c5c[nH]cn5)C4)C3=O)c(=O)oc2c1

>  <ligand_conf_name>  (1) 
MOL_0_isomer_0_conf_0

>  <ligand_molecule_name>  (1) 
MOL_0_isomer_0

$$$$
