MOL_0_isomer_0_conf_0
     RDKit          3D

 30 32  0  0  0  0  0  0  0  0999 V2000
    4.7364   -1.2033   -0.4893 C   0  0  0  0  0  0  0  0  0  0  0  0
    5.8881   -0.4609   -0.1961 C   0  0  0  0  0  0  0  0  0  0  0  0
    7.1397   -1.0116   -0.5237 N   0  0  0  0  0  0  0  0  0  0  0  0
    8.2128   -0.3338   -0.2571 C   0  0  0  0  0  0  0  0  0  0  0  0
    9.4190   -0.8697   -0.5753 N   0  0  0  0  0  0  0  0  0  0  0  0
   10.7265   -0.3134   -0.3788 C   0  0  0  0  0  0  0  0  0  0  0  0
    8.1631    0.8980    0.3318 N   0  0  0  0  0  0  0  0  0  0  0  0
    7.0019    1.5300    0.6933 C   0  0  0  0  0  0  0  0  0  0  0  0
    6.9978    2.6370    1.2205 O   0  0  0  0  0  0  0  0  0  0  0  0
    5.7592    0.7947    0.4083 C   0  0  0  0  0  0  0  0  0  0  0  0
    4.5155    1.3555    0.7402 C   0  0  0  0  0  0  0  0  0  0  0  0
    3.3980    0.5806    0.4298 C   0  0  0  0  0  0  0  0  0  0  0  0
    3.4775   -0.6712   -0.1702 C   0  0  0  0  0  0  0  0  0  0  0  0
    2.2248   -1.2016   -0.3572 N   0  0  0  0  0  0  0  0  0  0  0  0
    1.3855   -0.3101    0.1110 C   0  0  0  0  0  0  0  0  0  0  0  0
    0.0476   -0.4190    0.1291 N   0  0  0  0  0  0  0  0  0  0  0  0
   -0.8612    0.5676    0.6462 C   0  0  0  0  0  0  0  0  0  0  0  0
    2.0523    0.7841    0.5970 N   0  0  0  0  0  0  0  0  0  0  0  0
    4.8113   -2.1784   -0.9574 H   0  0  0  0  0  0  0  0  0  0  0  0
    9.3627   -1.7859   -1.0084 H   0  0  0  0  0  0  0  0  0  0  0  0
   10.8343    0.6294   -0.9236 H   0  0  0  0  0  0  0  0  0  0  0  0
   11.4878   -1.0067   -0.7486 H   0  0  0  0  0  0  0  0  0  0  0  0
   10.9183   -0.1357    0.6837 H   0  0  0  0  0  0  0  0  0  0  0  0
    9.0115    1.4002    0.5265 H   0  0  0  0  0  0  0  0  0  0  0  0
    4.4360    2.3306    1.2085 H   0  0  0  0  0  0  0  0  0  0  0  0
   -0.3524   -1.2705   -0.2553 H   0  0  0  0  0  0  0  0  0  0  0  0
   -0.6840    0.7475    1.7115 H   0  0  0  0  0  0  0  0  0  0  0  0
   -1.8920    0.2173    0.5333 H   0  0  0  0  0  0  0  0  0  0  0  0
   -0.7681    1.5134    0.1026 H   0  0  0  0  0  0  0  0  0  0  0  0
    1.6209    1.5962    1.0061 H   0  0  0  0  0  0  0  0  0  0  0  0
 19  1  1  0
  1  2  2  0
  2  3  1  0
  3  4  2  0
  4  5  1  0
  5 20  1  0
  5  6  1  0
  6 21  1  0
  6 22  1  0
  6 23  1  0
  4  7  1  0
  7 24  1  0
  7  8  1  0
  8  9  2  0
  2 10  1  0
  8 10  1  0
 10 11  2  0
 11 25  1  0
 11 12  1  0
  1 13  1  0
 12 13  2  0
 13 14  1  0
 14 15  2  0
 15 16  1  0
 16 26  1  0
 16 17  1  0
 17 27  1  0
 17 28  1  0
 17 29  1  0
 12 18  1  0
 15 18  1  0
 18 30  1  0
M  END
>  <conformer_energy>  (1) 
-127.46

>  <ligand_smiles>  (1) 
CNc1nc2cc3nc(NC)[nH]c3cc2c(=O)[nH]1

>  <ligand_conf_name>  (1) 
MOL_0_isomer_0_conf_0

>  <ligand_molecule_name>  (1) 
MOL_0_isomer_0

$$$$
