
     RDKit          3D

110115  0  0  1  0  0  0  0  0999 V2000
    0.8813    3.9083   -5.8493 C   0  0  0  0  0  0  0  0  0  0  0  0
    1.3041    4.1976   -4.5259 O   0  0  0  0  0  0  0  0  0  0  0  0
    0.8113    3.4261   -3.4932 C   0  0  0  0  0  0  0  0  0  0  0  0
   -0.1282    2.3802   -3.6758 C   0  0  0  0  0  0  0  0  0  0  0  0
   -0.5856    1.6269   -2.5793 C   0  0  0  0  0  0  0  0  0  0  0  0
   -0.1142    1.9101   -1.2846 C   0  0  0  0  0  0  0  0  0  0  0  0
   -0.5873    1.0851   -0.1010 C   0  0  0  0  0  0  0  0  0  0  0  0
    0.0853   -0.2977   -0.0252 C   0  0  0  0  0  0  0  0  0  0  0  0
    1.6250   -0.2511    0.0038 C   0  0  1  0  0  0  0  0  0  0  0  0
    2.0149    0.4816    1.1537 O   0  0  0  0  0  0  0  0  0  0  0  0
    3.1533    1.1938    1.1550 C   0  0  0  0  0  0  0  0  0  0  0  0
    3.9295    1.2759    0.2023 O   0  0  0  0  0  0  0  0  0  0  0  0
    3.3402    1.9359    2.5016 C   0  0  2  0  0  0  0  0  0  0  0  0
    4.7643    2.5377    2.6129 C   0  0  0  0  0  0  0  0  0  0  0  0
    5.8977    1.4981    2.7015 C   0  0  0  0  0  0  0  0  0  0  0  0
    5.4124    0.1392    3.2254 C   0  0  0  0  0  0  0  0  0  0  0  0
    4.2252    0.2583    4.1967 C   0  0  0  0  0  0  0  0  0  0  0  0
    3.0952    1.0546    3.6692 N   0  0  0  0  0  0  0  0  0  0  0  0
    1.8523    1.0251    4.2210 C   0  0  0  0  0  0  0  0  0  0  0  0
    0.9095    1.6479    3.7247 O   0  0  0  0  0  0  0  0  0  0  0  0
    1.5876    0.2240    5.5250 C   0  0  1  0  0  0  0  0  0  0  0  0
    0.5734    0.9244    6.4841 C   0  0  0  0  0  0  0  0  0  0  0  0
    0.1758    0.0351    7.6908 C   0  0  0  0  0  0  0  0  0  0  0  0
   -0.8258    0.7354    8.6232 C   0  0  0  0  0  0  0  0  0  0  0  0
   -0.2836    2.0836    9.1156 C   0  0  0  0  0  0  0  0  0  0  0  0
    0.0939    2.9827    7.9311 C   0  0  0  0  0  0  0  0  0  0  0  0
    1.1010    2.2867    7.0023 C   0  0  0  0  0  0  0  0  0  0  0  0
    1.1814   -1.2133    5.1862 C   0  0  0  0  0  0  0  0  0  0  0  0
    1.9696   -2.2893    5.6321 C   0  0  0  0  0  0  0  0  0  0  0  0
    1.5934   -3.6225    5.3548 C   0  0  0  0  0  0  0  0  0  0  0  0
    2.3351   -4.7155    5.7576 O   0  0  0  0  0  0  0  0  0  0  0  0
    3.5946   -4.4972    6.3732 C   0  0  0  0  0  0  0  0  0  0  0  0
    0.4053   -3.8883    4.6341 C   0  0  0  0  0  0  0  0  0  0  0  0
   -0.4201   -2.8082    4.1957 C   0  0  0  0  0  0  0  0  0  0  0  0
   -1.5995   -3.0710    3.5258 O   0  0  0  0  0  0  0  0  0  0  0  0
   -2.4740   -1.9948    3.2142 C   0  0  0  0  0  0  0  0  0  0  0  0
   -0.0048   -1.4806    4.4735 C   0  0  0  0  0  0  0  0  0  0  0  0
    0.1630   -5.2378    4.4446 O   0  0  0  0  0  0  0  0  0  0  0  0
   -0.7642   -5.7308    3.4890 C   0  0  0  0  0  0  0  0  0  0  0  0
   -0.3949   -5.4227    2.0152 C   0  0  2  0  0  0  0  0  0  0  0  0
   -1.4951   -5.8146    1.2038 O   0  0  0  0  0  0  0  0  0  0  0  0
    0.8453   -6.1492    1.4475 C   0  0  2  0  0  0  0  0  0  0  0  0
    0.5259   -7.5219    1.3877 O   0  0  0  0  0  0  0  0  0  0  0  0
    2.1732   -5.8982    2.1996 C   0  0  0  0  0  0  0  0  0  0  0  0
    2.4580   -4.5041    2.3189 O   0  0  0  0  0  0  0  0  0  0  0  0
    2.6213   -3.7727    1.1662 C   0  0  0  0  0  0  0  0  0  0  0  0
    3.2253   -4.2838   -0.0067 C   0  0  0  0  0  0  0  0  0  0  0  0
    3.3186   -3.4837   -1.1620 C   0  0  0  0  0  0  0  0  0  0  0  0
    2.8057   -2.1727   -1.1574 C   0  0  0  0  0  0  0  0  0  0  0  0
    2.2148   -1.6516    0.0105 C   0  0  0  0  0  0  0  0  0  0  0  0
    2.1415   -2.4495    1.1712 C   0  0  0  0  0  0  0  0  0  0  0  0
    0.8145    2.9518   -1.0943 C   0  0  0  0  0  0  0  0  0  0  0  0
    1.2887    3.7116   -2.1924 C   0  0  0  0  0  0  0  0  0  0  0  0
    2.2077    4.7337   -2.0700 O   0  0  0  0  0  0  0  0  0  0  0  0
    2.7964    4.9635   -0.7988 C   0  0  0  0  0  0  0  0  0  0  0  0
    1.3748    4.5911   -6.5408 H   0  0  0  0  0  0  0  0  0  0  0  0
    1.1518    2.8926   -6.1410 H   0  0  0  0  0  0  0  0  0  0  0  0
   -0.1947    4.0453   -5.9631 H   0  0  0  0  0  0  0  0  0  0  0  0
   -0.5133    2.1331   -4.6523 H   0  0  0  0  0  0  0  0  0  0  0  0
   -1.2969    0.8294   -2.7384 H   0  0  0  0  0  0  0  0  0  0  0  0
   -0.4014    1.6349    0.8235 H   0  0  0  0  0  0  0  0  0  0  0  0
   -1.6693    0.9669   -0.1647 H   0  0  0  0  0  0  0  0  0  0  0  0
   -0.2819   -0.8252    0.8551 H   0  0  0  0  0  0  0  0  0  0  0  0
   -0.2281   -0.8879   -0.8868 H   0  0  0  0  0  0  0  0  0  0  0  0
    1.9703    0.2582   -0.8977 H   0  0  0  0  0  0  0  0  0  0  0  0
    2.6377    2.7702    2.5166 H   0  0  0  0  0  0  0  0  0  0  0  0
    4.9557    3.2204    1.7833 H   0  0  0  0  0  0  0  0  0  0  0  0
    4.7940    3.1600    3.5080 H   0  0  0  0  0  0  0  0  0  0  0  0
    6.3513    1.3555    1.7192 H   0  0  0  0  0  0  0  0  0  0  0  0
    6.6894    1.8874    3.3426 H   0  0  0  0  0  0  0  0  0  0  0  0
    5.1110   -0.4833    2.3809 H   0  0  0  0  0  0  0  0  0  0  0  0
    6.2381   -0.3958    3.6964 H   0  0  0  0  0  0  0  0  0  0  0  0
    3.8986   -0.7543    4.4301 H   0  0  0  0  0  0  0  0  0  0  0  0
    4.5685    0.7122    5.1275 H   0  0  0  0  0  0  0  0  0  0  0  0
    2.5152    0.1761    6.0925 H   0  0  0  0  0  0  0  0  0  0  0  0
   -0.3434    1.1155    5.9233 H   0  0  0  0  0  0  0  0  0  0  0  0
   -0.2727   -0.9000    7.3539 H   0  0  0  0  0  0  0  0  0  0  0  0
    1.0674   -0.2408    8.2551 H   0  0  0  0  0  0  0  0  0  0  0  0
   -1.7688    0.8902    8.0965 H   0  0  0  0  0  0  0  0  0  0  0  0
   -1.0523    0.0927    9.4748 H   0  0  0  0  0  0  0  0  0  0  0  0
   -1.0289    2.5802    9.7383 H   0  0  0  0  0  0  0  0  0  0  0  0
    0.5895    1.9209    9.7490 H   0  0  0  0  0  0  0  0  0  0  0  0
   -0.8031    3.2444    7.3675 H   0  0  0  0  0  0  0  0  0  0  0  0
    0.5117    3.9219    8.2957 H   0  0  0  0  0  0  0  0  0  0  0  0
    2.0420    2.1411    7.5342 H   0  0  0  0  0  0  0  0  0  0  0  0
    1.3199    2.9567    6.1702 H   0  0  0  0  0  0  0  0  0  0  0  0
    2.8629   -2.0751    6.1970 H   0  0  0  0  0  0  0  0  0  0  0  0
    4.0692   -5.4589    6.5672 H   0  0  0  0  0  0  0  0  0  0  0  0
    4.2614   -3.9261    5.7256 H   0  0  0  0  0  0  0  0  0  0  0  0
    3.4868   -3.9850    7.3300 H   0  0  0  0  0  0  0  0  0  0  0  0
   -3.3754   -2.3897    2.7460 H   0  0  0  0  0  0  0  0  0  0  0  0
   -2.7809   -1.4555    4.1116 H   0  0  0  0  0  0  0  0  0  0  0  0
   -2.0183   -1.2988    2.5092 H   0  0  0  0  0  0  0  0  0  0  0  0
   -0.5930   -0.6318    4.1594 H   0  0  0  0  0  0  0  0  0  0  0  0
   -0.7991   -6.8121    3.6239 H   0  0  0  0  0  0  0  0  0  0  0  0
   -1.7702   -5.3989    3.7410 H   0  0  0  0  0  0  0  0  0  0  0  0
   -0.2500   -4.3511    1.8814 H   0  0  0  0  0  0  0  0  0  0  0  0
   -2.2443   -5.3055    1.4784 H   0  0  0  0  0  0  0  0  0  0  0  0
    0.9693   -5.8283    0.4129 H   0  0  0  0  0  0  0  0  0  0  0  0
   -0.3864   -7.5219    1.1148 H   0  0  0  0  0  0  0  0  0  0  0  0
    2.1129   -6.3103    3.2066 H   0  0  0  0  0  0  0  0  0  0  0  0
    2.9987   -6.4268    1.7239 H   0  0  0  0  0  0  0  0  0  0  0  0
    3.6241   -5.2864   -0.0384 H   0  0  0  0  0  0  0  0  0  0  0  0
    3.7793   -3.8792   -2.0556 H   0  0  0  0  0  0  0  0  0  0  0  0
    2.8706   -1.5654   -2.0493 H   0  0  0  0  0  0  0  0  0  0  0  0
    1.6856   -2.0541    2.0673 H   0  0  0  0  0  0  0  0  0  0  0  0
    1.1601    3.1476   -0.0915 H   0  0  0  0  0  0  0  0  0  0  0  0
    3.5334    5.7618   -0.8836 H   0  0  0  0  0  0  0  0  0  0  0  0
    2.0523    5.2796   -0.0667 H   0  0  0  0  0  0  0  0  0  0  0  0
    3.3137    4.0760   -0.4315 H   0  0  0  0  0  0  0  0  0  0  0  0
  1  2  1  0
  1 56  1  0
  1 57  1  0
  1 58  1  0
  2  3  1  0
  3  4  2  0
  3 53  1  0
  4  5  1  0
  4 59  1  0
  5  6  2  0
  5 60  1  0
  6  7  1  0
  6 52  1  0
  7  8  1  0
  7 61  1  0
  7 62  1  0
  8  9  1  0
  8 63  1  0
  8 64  1  0
  9 10  1  0
  9 50  1  0
  9 65  1  6
 10 11  1  0
 11 12  2  0
 11 13  1  0
 13 14  1  0
 13 18  1  0
 13 66  1  6
 14 15  1  0
 14 67  1  0
 14 68  1  0
 15 16  1  0
 15 69  1  0
 15 70  1  0
 16 17  1  0
 16 71  1  0
 16 72  1  0
 17 18  1  0
 17 73  1  0
 17 74  1  0
 18 19  1  0
 19 20  2  0
 19 21  1  0
 21 22  1  0
 21 28  1  0
 21 75  1  1
 22 23  1  0
 22 27  1  0
 22 76  1  0
 23 24  1  0
 23 77  1  0
 23 78  1  0
 24 25  1  0
 24 79  1  0
 24 80  1  0
 25 26  1  0
 25 81  1  0
 25 82  1  0
 26 27  1  0
 26 83  1  0
 26 84  1  0
 27 85  1  0
 27 86  1  0
 28 29  2  0
 28 37  1  0
 29 30  1  0
 29 87  1  0
 30 31  1  0
 30 33  2  0
 31 32  1  0
 32 88  1  0
 32 89  1  0
 32 90  1  0
 33 34  1  0
 33 38  1  0
 34 35  1  0
 34 37  2  0
 35 36  1  0
 36 91  1  0
 36 92  1  0
 36 93  1  0
 37 94  1  0
 38 39  1  0
 39 40  1  0
 39 95  1  0
 39 96  1  0
 40 41  1  0
 40 42  1  0
 40 97  1  1
 41 98  1  0
 42 43  1  0
 42 44  1  0
 42 99  1  6
 43100  1  0
 44 45  1  0
 44101  1  0
 44102  1  0
 45 46  1  0
 46 47  2  0
 46 51  1  0
 47 48  1  0
 47103  1  0
 48 49  2  0
 48104  1  0
 49 50  1  0
 49105  1  0
 50 51  2  0
 51106  1  0
 52 53  2  0
 52107  1  0
 53 54  1  0
 54 55  1  0
 55108  1  0
 55109  1  0
 55110  1  0
M  END
>  <conformer_energy>  (1) 
229.40539208501036

>  <ligand_smiles>  (1) 
COc1ccc(CC[C@H]2OC(=O)[C@@H]3CCCCN3C(=O)[C@@H](C3CCCCC3)c3cc(OC)c(c(OC)c3)OC[C@H](O)[C@H](O)COc3cccc2c3)cc1OC

>  <ligand_conf_name>  (1) 
MOL_0_isomer_0_conf_0

>  <ligand_molecule_name>  (1) 
MOL_0_isomer_0

$$$$
