MOL_0_isomer_0_conf_0
     RDKit          3D

 60 65  0  0  0  0  0  0  0  0999 V2000
    8.7905   -3.8012    1.5922 C   0  0  0  0  0  0  0  0  0  0  0  0
    8.1244   -2.6688    1.1736 N   0  0  0  0  0  0  0  0  0  0  0  0
    6.8185   -2.8441    1.1878 C   0  0  0  0  0  0  0  0  0  0  0  0
    5.9269   -1.8791    0.8119 N   0  0  0  0  0  0  0  0  0  0  0  0
    4.4910   -2.0425    1.0197 C   0  0  0  0  0  0  0  0  0  0  0  0
    3.6369   -0.9530    0.3935 C   0  0  0  0  0  0  0  0  0  0  0  0
    2.2448   -0.9695    0.6097 C   0  0  0  0  0  0  0  0  0  0  0  0
    1.4097   -0.0097    0.0237 C   0  0  0  0  0  0  0  0  0  0  0  0
   -0.0025   -0.0251    0.2332 N   0  0  0  0  0  0  0  0  0  0  0  0
   -0.7416   -0.5330    1.3019 C   0  0  0  0  0  0  0  0  0  0  0  0
   -0.1869   -1.0283    2.5886 C   0  0  0  0  0  0  0  0  0  0  0  0
   -2.0399   -0.4297    1.0799 N   0  0  0  0  0  0  0  0  0  0  0  0
   -2.1757    0.2108   -0.1185 C   0  0  0  0  0  0  0  0  0  0  0  0
   -3.5158    0.4968   -0.6745 C   0  0  0  0  0  0  0  0  0  0  0  0
   -0.9375    0.4959   -0.6422 C   0  0  0  0  0  0  0  0  0  0  0  0
    1.9789    0.9590   -0.8150 C   0  0  0  0  0  0  0  0  0  0  0  0
    3.3585    0.9858   -1.0336 C   0  0  0  0  0  0  0  0  0  0  0  0
    4.1918    0.0448   -0.4211 C   0  0  0  0  0  0  0  0  0  0  0  0
    5.6755    0.0585   -0.6715 C   0  0  0  0  0  0  0  0  0  0  0  0
    6.4310   -0.5405    0.5140 C   0  0  0  0  0  0  0  0  0  0  0  0
    6.3538   -4.4294    1.7292 S   0  0  0  0  0  0  0  0  0  0  0  0
    7.9930   -4.8693    1.9365 C   0  0  0  0  0  0  0  0  0  0  0  0
    8.3820   -6.2353    2.4046 C   0  0  0  0  0  0  0  0  0  0  0  0
    9.2304   -6.2142    3.6578 C   0  0  0  0  0  0  0  0  0  0  0  0
    8.6575   -5.9055    4.9007 C   0  0  0  0  0  0  0  0  0  0  0  0
    9.4385   -5.8776    6.0624 C   0  0  0  0  0  0  0  0  0  0  0  0
   10.8098   -6.1586    5.9942 C   0  0  0  0  0  0  0  0  0  0  0  0
   11.6297   -6.1366    7.1587 N   0  0  0  0  0  0  0  0  0  0  0  0
   12.9612   -6.4106    7.0823 N   0  0  0  0  0  0  0  0  0  0  0  0
   13.4056   -6.2973    8.3343 C   0  0  0  0  0  0  0  0  0  0  0  0
   12.3889   -5.9567    9.2372 C   0  0  0  0  0  0  0  0  0  0  0  0
   11.2579   -5.8597    8.4604 C   0  0  0  0  0  0  0  0  0  0  0  0
   11.3864   -6.4655    4.7520 C   0  0  0  0  0  0  0  0  0  0  0  0
   10.6026   -6.4911    3.5943 C   0  0  0  0  0  0  0  0  0  0  0  0
    9.8734   -3.7917    1.6275 H   0  0  0  0  0  0  0  0  0  0  0  0
    4.1539   -2.9909    0.5829 H   0  0  0  0  0  0  0  0  0  0  0  0
    4.2847   -2.0559    2.0978 H   0  0  0  0  0  0  0  0  0  0  0  0
    1.8379   -1.7863    1.1968 H   0  0  0  0  0  0  0  0  0  0  0  0
   -0.9429   -0.9430    3.3768 H   0  0  0  0  0  0  0  0  0  0  0  0
    0.6795   -0.4449    2.9124 H   0  0  0  0  0  0  0  0  0  0  0  0
    0.0841   -2.0846    2.5134 H   0  0  0  0  0  0  0  0  0  0  0  0
   -4.1684    0.9173    0.0974 H   0  0  0  0  0  0  0  0  0  0  0  0
   -3.9736   -0.4235   -1.0518 H   0  0  0  0  0  0  0  0  0  0  0  0
   -3.4578    1.2156   -1.4986 H   0  0  0  0  0  0  0  0  0  0  0  0
   -0.6639    0.9631   -1.5765 H   0  0  0  0  0  0  0  0  0  0  0  0
    1.3785    1.7312   -1.2888 H   0  0  0  0  0  0  0  0  0  0  0  0
    3.7799    1.7516   -1.6818 H   0  0  0  0  0  0  0  0  0  0  0  0
    6.0240    1.0851   -0.8337 H   0  0  0  0  0  0  0  0  0  0  0  0
    5.8805   -0.5175   -1.5823 H   0  0  0  0  0  0  0  0  0  0  0  0
    7.4981   -0.5391    0.2605 H   0  0  0  0  0  0  0  0  0  0  0  0
    6.3132    0.0929    1.4032 H   0  0  0  0  0  0  0  0  0  0  0  0
    8.9265   -6.7408    1.5951 H   0  0  0  0  0  0  0  0  0  0  0  0
    7.4991   -6.8599    2.5980 H   0  0  0  0  0  0  0  0  0  0  0  0
    7.5944   -5.6785    4.9713 H   0  0  0  0  0  0  0  0  0  0  0  0
    8.9439   -5.6310    6.9972 H   0  0  0  0  0  0  0  0  0  0  0  0
   14.4562   -6.4696    8.5345 H   0  0  0  0  0  0  0  0  0  0  0  0
   12.4653   -5.8020   10.3046 H   0  0  0  0  0  0  0  0  0  0  0  0
   10.2409   -5.6188    8.7296 H   0  0  0  0  0  0  0  0  0  0  0  0
   12.4501   -6.6869    4.6688 H   0  0  0  0  0  0  0  0  0  0  0  0
   11.0774   -6.7291    2.6439 H   0  0  0  0  0  0  0  0  0  0  0  0
 35  1  1  0
  1  2  1  0
  2  3  2  0
  3  4  1  0
  4  5  1  0
  5 36  1  0
  5 37  1  0
  5  6  1  0
  6  7  2  0
  7 38  1  0
  7  8  1  0
  8  9  1  0
  9 10  1  0
 10 11  1  0
 11 39  1  0
 11 40  1  0
 11 41  1  0
 10 12  2  0
 12 13  1  0
 13 14  1  0
 14 42  1  0
 14 43  1  0
 14 44  1  0
  9 15  1  0
 13 15  2  0
 15 45  1  0
  8 16  2  0
 16 46  1  0
 16 17  1  0
 17 47  1  0
  6 18  1  0
 17 18  2  0
 18 19  1  0
 19 48  1  0
 19 49  1  0
  4 20  1  0
 19 20  1  0
 20 50  1  0
 20 51  1  0
  3 21  1  0
  1 22  2  0
 21 22  1  0
 22 23  1  0
 23 52  1  0
 23 53  1  0
 23 24  1  0
 24 25  2  0
 25 54  1  0
 25 26  1  0
 26 55  1  0
 26 27  2  0
 27 28  1  0
 28 29  1  0
 29 30  2  0
 30 56  1  0
 30 31  1  0
 31 57  1  0
 28 32  1  0
 31 32  2  0
 32 58  1  0
 27 33  1  0
 33 59  1  0
 24 34  1  0
 33 34  2  0
 34 60  1  0
M  END
>  <conformer_energy>  (1) 
89.65

>  <ligand_smiles>  (1) 
Cc1cn(-c2ccc3c(c2)CN(c2ncc(Cc4ccc(-n5cccn5)cc4)s2)CC3)c(C)n1

>  <ligand_conf_name>  (1) 
MOL_0_isomer_0_conf_0

>  <ligand_molecule_name>  (1) 
MOL_0_isomer_0

$$$$
