MOL_0_isomer_0_conf_0
     RDKit          3D

 15 15  0  0  0  0  0  0  0  0999 V2000
    8.5977  -29.6030  -48.8778 C   0  0  0  0  0  0  0  0  0  0  0  0
    8.0113  -30.7908  -48.6836 C   0  0  0  0  0  0  0  0  0  0  0  0
    7.6153  -31.3324  -47.3504 C   0  0  0  0  0  0  0  0  0  0  0  0
    7.7336  -31.6321  -49.8792 C   0  0  0  0  0  0  0  0  0  0  0  0
    7.1994  -32.7321  -49.7853 O   0  0  0  0  0  0  0  0  0  0  0  0
    8.1082  -31.1076  -51.0851 N   0  0  0  0  0  0  0  0  0  0  0  0
    8.7057  -29.8944  -51.2684 C   0  0  0  0  0  0  0  0  0  0  0  0
    9.0199  -29.4757  -52.3772 O   0  0  0  0  0  0  0  0  0  0  0  0
    8.9330  -29.1712  -50.1300 N   0  0  0  0  0  0  0  0  0  0  0  0
    8.8345  -28.9293  -48.0599 H   0  0  0  0  0  0  0  0  0  0  0  0
    8.1340  -32.2754  -47.1493 H   0  0  0  0  0  0  0  0  0  0  0  0
    6.5361  -31.5135  -47.3144 H   0  0  0  0  0  0  0  0  0  0  0  0
    7.8630  -30.6375  -46.5410 H   0  0  0  0  0  0  0  0  0  0  0  0
    7.9291  -31.6615  -51.9071 H   0  0  0  0  0  0  0  0  0  0  0  0
    9.3768  -28.2696  -50.2643 H   0  0  0  0  0  0  0  0  0  0  0  0
 10  1  1  0
  1  2  2  0
  2  3  1  0
  3 11  1  0
  3 12  1  0
  3 13  1  0
  2  4  1  0
  4  5  2  0
  4  6  1  0
  6 14  1  0
  6  7  1  0
  7  8  2  0
  1  9  1  0
  7  9  1  0
  9 15  1  0
M  END
>  <conformer_energy>  (1) 
-95.23

>  <ligand_smiles>  (1) 
Cc1c[nH]c(=O)[nH]c1=O

>  <ligand_conf_name>  (1) 
MOL_0_isomer_0_conf_0

>  <ligand_molecule_name>  (1) 
MOL_0_isomer_0

$$$$
