MOL_0_isomer_0_conf_0
     RDKit          3D

 77 84  0  0  0  0  0  0  0  0999 V2000
    7.1038    0.2888   -2.6147 C   0  0  0  0  0  0  0  0  0  0  0  0
    7.6499    1.3043   -2.2760 C   0  0  0  0  0  0  0  0  0  0  0  0
    8.3222    2.5412   -1.9792 C   0  0  0  0  0  0  0  0  0  0  0  0
    8.6354    3.3370   -3.0938 C   0  0  0  0  0  0  0  0  0  0  0  0
    8.2711    2.9478   -4.3265 F   0  0  0  0  0  0  0  0  0  0  0  0
    9.3247    4.5277   -2.9636 C   0  0  0  0  0  0  0  0  0  0  0  0
    9.7245    4.9376   -1.7002 C   0  0  0  0  0  0  0  0  0  0  0  0
    9.4291    4.1731   -0.5600 C   0  0  0  0  0  0  0  0  0  0  0  0
    9.8854    4.6506    0.6745 C   0  0  0  0  0  0  0  0  0  0  0  0
    9.6464    3.9481    1.8415 C   0  0  0  0  0  0  0  0  0  0  0  0
   10.1342    4.4634    3.0034 O   0  0  0  0  0  0  0  0  0  0  0  0
    8.9259    2.7694    1.8120 C   0  0  0  0  0  0  0  0  0  0  0  0
    8.4250    2.2628    0.5912 C   0  0  0  0  0  0  0  0  0  0  0  0
    7.6123    1.0443    0.6858 C   0  0  0  0  0  0  0  0  0  0  0  0
    8.2956   -0.1023    0.9164 N   0  0  0  0  0  0  0  0  0  0  0  0
    7.5743   -1.2374    1.0101 C   0  0  0  0  0  0  0  0  0  0  0  0
    6.1802   -1.3093    0.8803 C   0  0  0  0  0  0  0  0  0  0  0  0
    5.4015   -2.4818    0.9432 C   0  0  0  0  0  0  0  0  0  0  0  0
    5.9990   -3.7468    1.0335 N   0  0  0  0  0  0  0  0  0  0  0  0
    6.6613   -4.2360   -0.1993 C   0  0  0  0  0  0  0  0  0  0  0  0
    7.3505   -5.6126    0.0381 C   0  0  1  0  0  0  0  0  0  0  0  0
    8.3414   -5.5771    1.2021 C   0  0  0  0  0  0  0  0  0  0  0  0
    7.5085   -5.8597    2.4605 C   0  0  0  0  0  0  0  0  0  0  0  0
    6.0752   -6.0670    1.9674 C   0  0  1  0  0  0  0  0  0  0  0  0
    5.2790   -4.7347    1.8656 C   0  0  0  0  0  0  0  0  0  0  0  0
    6.3107   -6.5816    0.5608 N   0  0  0  0  0  4  0  0  0  0  0  0
    4.0557   -2.4365    0.9082 N   0  0  0  0  0  0  0  0  0  0  0  0
    3.4978   -1.2331    0.7458 C   0  0  0  0  0  0  0  0  0  0  0  0
    2.1146   -1.2116    0.7373 O   0  0  0  0  0  0  0  0  0  0  0  0
    1.6071   -0.0247    0.1066 C   0  0  0  0  0  0  0  0  0  0  0  0
    0.0618   -0.0600    0.0967 C   0  0  1  0  0  0  0  0  0  0  0  0
   -0.5194   -1.2851   -0.6211 C   0  0  0  0  0  0  0  0  0  0  0  0
   -1.7858   -1.6163    0.1525 C   0  0  0  0  0  0  0  0  0  0  0  0
   -1.3748   -1.4113    1.5955 C   0  0  0  0  0  0  0  0  0  0  0  0
   -0.4638   -0.2065    1.5517 N   0  0  2  0  0  4  0  0  0  0  0  0
   -1.1234    1.1118    1.9268 C   0  0  0  0  0  0  0  0  0  0  0  0
   -0.6459    2.1031    0.8799 C   0  0  2  0  0  0  0  0  0  0  0  0
   -1.5605    3.0802    0.7028 F   0  0  0  0  0  0  0  0  0  0  0  0
   -0.5444    1.2644   -0.3774 C   0  0  0  0  0  0  0  0  0  0  0  0
    4.1510   -0.0766    0.6404 N   0  0  0  0  0  0  0  0  0  0  0  0
    5.4904   -0.1090    0.7094 C   0  0  0  0  0  0  0  0  0  0  0  0
    6.2225    1.0695    0.6143 C   0  0  0  0  0  0  0  0  0  0  0  0
    5.5749    2.2357    0.4482 F   0  0  0  0  0  0  0  0  0  0  0  0
    8.6961    2.9494   -0.6523 C   0  0  0  0  0  0  0  0  0  0  0  0
    6.6292   -0.5956   -2.9677 H   0  0  0  0  0  0  0  0  0  0  0  0
    9.5569    5.1206   -3.8428 H   0  0  0  0  0  0  0  0  0  0  0  0
   10.2812    5.8708   -1.6128 H   0  0  0  0  0  0  0  0  0  0  0  0
   10.4496    5.5803    0.7392 H   0  0  0  0  0  0  0  0  0  0  0  0
    9.9792    3.8394    3.7309 H   0  0  0  0  0  0  0  0  0  0  0  0
    8.7332    2.2299    2.7363 H   0  0  0  0  0  0  0  0  0  0  0  0
    8.1739   -2.1202    1.2124 H   0  0  0  0  0  0  0  0  0  0  0  0
    5.9105   -4.3455   -0.9927 H   0  0  0  0  0  0  0  0  0  0  0  0
    7.4156   -3.5266   -0.5540 H   0  0  0  0  0  0  0  0  0  0  0  0
    7.7721   -6.0221   -0.8840 H   0  0  0  0  0  0  0  0  0  0  0  0
    8.8785   -4.6257    1.2692 H   0  0  0  0  0  0  0  0  0  0  0  0
    9.0933   -6.3663    1.0804 H   0  0  0  0  0  0  0  0  0  0  0  0
    7.8779   -6.7731    2.9418 H   0  0  0  0  0  0  0  0  0  0  0  0
    7.5856   -5.0514    3.1948 H   0  0  0  0  0  0  0  0  0  0  0  0
    5.5255   -6.8298    2.5257 H   0  0  0  0  0  0  0  0  0  0  0  0
    4.2943   -4.9509    1.4318 H   0  0  0  0  0  0  0  0  0  0  0  0
    5.1295   -4.3318    2.8745 H   0  0  0  0  0  0  0  0  0  0  0  0
    5.4522   -6.5823   -0.0063 H   0  0  0  0  0  0  0  0  0  0  0  0
    6.6779   -7.5439    0.5762 H   0  0  0  0  0  0  0  0  0  0  0  0
    1.9377    0.8634    0.6606 H   0  0  0  0  0  0  0  0  0  0  0  0
    1.9732    0.0329   -0.9270 H   0  0  0  0  0  0  0  0  0  0  0  0
    0.1637   -2.1415   -0.5751 H   0  0  0  0  0  0  0  0  0  0  0  0
   -0.7264   -1.0916   -1.6788 H   0  0  0  0  0  0  0  0  0  0  0  0
   -2.1303   -2.6373   -0.0362 H   0  0  0  0  0  0  0  0  0  0  0  0
   -2.5967   -0.9305   -0.1179 H   0  0  0  0  0  0  0  0  0  0  0  0
   -0.7669   -2.2454    1.9619 H   0  0  0  0  0  0  0  0  0  0  0  0
   -2.2062   -1.2297    2.2819 H   0  0  0  0  0  0  0  0  0  0  0  0
    0.3309   -0.3820    2.1858 H   0  0  0  0  0  0  0  0  0  0  0  0
   -0.8095    1.3709    2.9414 H   0  0  0  0  0  0  0  0  0  0  0  0
   -2.2107    0.9881    1.8913 H   0  0  0  0  0  0  0  0  0  0  0  0
    0.3120    2.5557    1.1549 H   0  0  0  0  0  0  0  0  0  0  0  0
    0.0640    1.7578   -1.1428 H   0  0  0  0  0  0  0  0  0  0  0  0
   -1.5425    1.1302   -0.8122 H   0  0  0  0  0  0  0  0  0  0  0  0
 45  1  1  0
  1  2  3  0
  2  3  1  0
  3  4  2  0
  4  5  1  0
  4  6  1  0
  6 46  1  0
  6  7  2  0
  7 47  1  0
  7  8  1  0
  8  9  1  0
  9 48  1  0
  9 10  2  0
 10 11  1  0
 11 49  1  0
 10 12  1  0
 12 50  1  0
 12 13  2  0
 13 14  1  0
 14 15  2  0
 15 16  1  0
 16 51  1  0
 16 17  2  0
 17 18  1  0
 18 19  1  0
 19 20  1  0
 20 52  1  0
 20 53  1  0
 20 21  1  0
 21 54  1  6
 21 22  1  0
 22 55  1  0
 22 56  1  0
 22 23  1  0
 23 57  1  0
 23 58  1  0
 23 24  1  0
 24 59  1  1
 19 25  1  0
 24 25  1  0
 25 60  1  0
 25 61  1  0
 21 26  1  0
 24 26  1  0
 26 62  1  0
 26 63  1  0
 18 27  2  0
 27 28  1  0
 28 29  1  0
 29 30  1  0
 30 64  1  0
 30 65  1  0
 31 30  1  1
 31 32  1  0
 32 66  1  0
 32 67  1  0
 32 33  1  0
 33 68  1  0
 33 69  1  0
 33 34  1  0
 34 70  1  0
 34 71  1  0
 31 35  1  0
 34 35  1  0
 35 72  1  1
 35 36  1  0
 36 73  1  0
 36 74  1  0
 36 37  1  0
 37 75  1  1
 37 38  1  0
 31 39  1  0
 37 39  1  0
 39 76  1  0
 39 77  1  0
 28 40  2  0
 17 41  1  0
 40 41  1  0
 14 42  1  0
 41 42  2  0
 42 43  1  0
  3 44  1  0
  8 44  2  0
 13 44  1  0
M  CHG  2  26   1  35   1
M  END
>  <conformer_energy>  (1) 
197.17

>  <ligand_smiles>  (1) 
C#Cc1c(F)ccc2cc(O)cc(-c3ncc4c(N5C[C@H]6CC[C@@H](C5)[NH2+]6)nc(OC[C@@]56CCC[N@@H+]5C[C@H](F)C6)nc4c3F)c12

>  <ligand_conf_name>  (1) 
MOL_0_isomer_0_conf_0

>  <ligand_molecule_name>  (1) 
MOL_0_isomer_0

$$$$
