MOL_0_isomer_0_conf_0
     RDKit          3D

 27 29  0  0  0  0  0  0  0  0999 V2000
    3.5339   -0.1481   -1.2789 C   0  0  0  0  0  0  0  0  0  0  0  0
    2.1432   -0.2947   -1.1911 C   0  0  0  0  0  0  0  0  0  0  0  0
    1.4376    0.0697   -0.0190 C   0  0  0  0  0  0  0  0  0  0  0  0
   -0.0217   -0.0866    0.0670 C   0  0  0  0  0  0  0  0  0  0  0  0
   -0.6986    0.2581    1.1763 N   0  0  0  0  0  0  0  0  0  0  0  0
   -1.9852   -0.0189    0.8952 N   0  0  0  0  0  0  0  0  0  0  0  0
   -2.9958    0.2385    1.8918 C   0  0  0  0  0  0  0  0  0  0  0  0
   -2.1720   -0.5335   -0.3615 C   0  0  0  0  0  0  0  0  0  0  0  0
   -3.3691   -0.8864   -0.8666 N   0  0  0  0  0  0  0  0  0  0  0  0
   -0.9184   -0.5882   -0.9194 C   0  0  0  0  0  0  0  0  0  0  0  0
    2.1567    0.5884    1.0733 C   0  0  0  0  0  0  0  0  0  0  0  0
    3.5251    0.7219    0.9591 C   0  0  0  0  0  0  0  0  0  0  0  0
    4.1948    0.3635   -0.1854 C   0  0  0  0  0  0  0  0  0  0  0  0
    5.5346    0.5739   -0.0924 O   0  0  0  0  0  0  0  0  0  0  0  0
    5.6319    1.1071    1.2449 C   0  0  0  0  0  0  0  0  0  0  0  0
    4.3606    1.2039    1.9184 O   0  0  0  0  0  0  0  0  0  0  0  0
    4.0732   -0.4274   -2.1768 H   0  0  0  0  0  0  0  0  0  0  0  0
    1.6185   -0.6983   -2.0528 H   0  0  0  0  0  0  0  0  0  0  0  0
   -3.4927   -0.7047    2.1318 H   0  0  0  0  0  0  0  0  0  0  0  0
   -3.7092    0.9582    1.4828 H   0  0  0  0  0  0  0  0  0  0  0  0
   -2.5294    0.6501    2.7909 H   0  0  0  0  0  0  0  0  0  0  0  0
   -3.4589   -1.2647   -1.8062 H   0  0  0  0  0  0  0  0  0  0  0  0
   -4.2472   -0.8044   -0.3638 H   0  0  0  0  0  0  0  0  0  0  0  0
   -0.6826   -0.9442   -1.9103 H   0  0  0  0  0  0  0  0  0  0  0  0
    1.6559    0.8805    1.9911 H   0  0  0  0  0  0  0  0  0  0  0  0
    6.0777    2.1071    1.1916 H   0  0  0  0  0  0  0  0  0  0  0  0
    6.2920    0.4592    1.8330 H   0  0  0  0  0  0  0  0  0  0  0  0
 17  1  1  0
  1  2  2  0
  2 18  1  0
  2  3  1  0
  3  4  1  0
  4  5  2  0
  5  6  1  0
  6  7  1  0
  7 19  1  0
  7 20  1  0
  7 21  1  0
  6  8  1  0
  8  9  1  0
  9 22  1  0
  9 23  1  0
  4 10  1  0
  8 10  2  0
 10 24  1  0
  3 11  2  0
 11 25  1  0
 11 12  1  0
  1 13  1  0
 12 13  2  0
 13 14  1  0
 14 15  1  0
 15 26  1  0
 15 27  1  0
 12 16  1  0
 15 16  1  0
M  END
>  <conformer_energy>  (1) 
44.38

>  <ligand_smiles>  (1) 
Cn1nc(-c2ccc3c(c2)OCO3)cc1N

>  <ligand_conf_name>  (1) 
MOL_0_isomer_0_conf_0

>  <ligand_molecule_name>  (1) 
MOL_0_isomer_0

$$$$
