MOL_0_isomer_0_conf_0
     RDKit          3D

 33 35  0  0  0  0  0  0  0  0999 V2000
   -2.4702    3.4756    4.0524 C   0  0  0  0  0  0  0  0  0  0  0  0
   -2.8728    3.2671    2.7360 C   0  0  0  0  0  0  0  0  0  0  0  0
   -1.9583    2.7862    1.7949 C   0  0  0  0  0  0  0  0  0  0  0  0
   -0.6311    2.5051    2.1485 C   0  0  0  0  0  0  0  0  0  0  0  0
    0.2539    2.0625    1.1506 N   0  0  0  0  0  0  0  0  0  0  0  0
    1.6616    2.0621    1.0405 C   0  0  0  0  0  0  0  0  0  0  0  0
    2.3545    3.1443    1.6256 C   0  0  0  0  0  0  0  0  0  0  0  0
    3.7352    3.2226    1.6081 C   0  0  0  0  0  0  0  0  0  0  0  0
    4.4562    2.2068    1.0062 C   0  0  0  0  0  0  0  0  0  0  0  0
    3.8181    1.1100    0.4084 C   0  0  0  0  0  0  0  0  0  0  0  0
    4.6585    0.1386   -0.1623 C   0  0  0  0  0  0  0  0  0  0  0  0
    4.1506   -0.9957   -0.7743 C   0  0  0  0  0  0  0  0  0  0  0  0
    2.7809   -1.1683   -0.8307 C   0  0  0  0  0  0  0  0  0  0  0  0
    1.9072   -0.2087   -0.2743 C   0  0  0  0  0  0  0  0  0  0  0  0
    0.1341   -0.6006   -0.5065 S   0  0  0  0  0  6  0  0  0  0  0  0
    0.1270   -1.5876   -1.5852 O   0  0  0  0  0  0  0  0  0  0  0  0
   -0.4557    0.6837   -0.8834 O   0  0  0  0  0  0  0  0  0  0  0  0
   -0.2442   -1.1183    0.8025 O   0  0  0  0  0  1  0  0  0  0  0  0
    2.3902    0.9867    0.3865 C   0  0  0  0  0  0  0  0  0  0  0  0
   -0.2471    2.7162    3.4773 C   0  0  0  0  0  0  0  0  0  0  0  0
   -1.1574    3.1966    4.4245 C   0  0  0  0  0  0  0  0  0  0  0  0
   -3.1806    3.8401    4.7878 H   0  0  0  0  0  0  0  0  0  0  0  0
   -3.8966    3.4668    2.4352 H   0  0  0  0  0  0  0  0  0  0  0  0
   -2.2834    2.6168    0.7697 H   0  0  0  0  0  0  0  0  0  0  0  0
   -0.2181    1.6501    0.3318 H   0  0  0  0  0  0  0  0  0  0  0  0
    1.7932    3.9589    2.0762 H   0  0  0  0  0  0  0  0  0  0  0  0
    4.2412    4.0702    2.0581 H   0  0  0  0  0  0  0  0  0  0  0  0
    5.5417    2.2814    1.0060 H   0  0  0  0  0  0  0  0  0  0  0  0
    5.7397    0.2571   -0.1301 H   0  0  0  0  0  0  0  0  0  0  0  0
    4.8126   -1.7389   -1.2064 H   0  0  0  0  0  0  0  0  0  0  0  0
    2.3791   -2.0584   -1.3109 H   0  0  0  0  0  0  0  0  0  0  0  0
    0.7615    2.4685    3.7945 H   0  0  0  0  0  0  0  0  0  0  0  0
   -0.8390    3.3366    5.4529 H   0  0  0  0  0  0  0  0  0  0  0  0
 22  1  1  0
  1  2  2  0
  2 23  1  0
  2  3  1  0
  3 24  1  0
  3  4  2  0
  4  5  1  0
  5 25  1  0
  5  6  1  0
  6  7  2  0
  7 26  1  0
  7  8  1  0
  8 27  1  0
  8  9  2  0
  9 28  1  0
  9 10  1  0
 10 11  1  0
 11 29  1  0
 11 12  2  0
 12 30  1  0
 12 13  1  0
 13 31  1  0
 13 14  2  0
 14 15  1  0
 15 16  2  0
 15 17  2  0
 15 18  1  0
  6 19  1  0
 10 19  2  0
 14 19  1  0
  4 20  1  0
 20 32  1  0
  1 21  1  0
 20 21  2  0
 21 33  1  0
M  CHG  1  18  -1
M  END
>  <conformer_energy>  (1) 
73.16

>  <ligand_smiles>  (1) 
O=S(=O)([O-])c1cccc2cccc(Nc3ccccc3)c12

>  <ligand_conf_name>  (1) 
MOL_0_isomer_0_conf_0

>  <ligand_molecule_name>  (1) 
MOL_0_isomer_0

$$$$
