MOL_0_isomer_0_conf_0
     RDKit          3D

 14 14  0  0  0  0  0  0  0  0999 V2000
    1.3885   -0.0007   -2.3872 O   0  0  0  0  0  0  0  0  0  0  0  0
    2.0777   -0.0021   -1.2082 C   0  0  0  0  0  0  0  0  0  0  0  0
    3.4646   -0.0065   -1.2338 C   0  0  0  0  0  0  0  0  0  0  0  0
    4.1669   -0.0079   -0.0278 C   0  0  0  0  0  0  0  0  0  0  0  0
    3.4759   -0.0049    1.1887 C   0  0  0  0  0  0  0  0  0  0  0  0
    2.0783   -0.0005    1.2070 C   0  0  0  0  0  0  0  0  0  0  0  0
    1.3861    0.0009    0.0013 C   0  0  0  0  0  0  0  0  0  0  0  0
    0.0192    0.0052   -0.0476 O   0  0  0  0  0  0  0  0  0  0  0  0
    0.4485    0.0025   -2.1181 H   0  0  0  0  0  0  0  0  0  0  0  0
    3.9924   -0.0088   -2.1823 H   0  0  0  0  0  0  0  0  0  0  0  0
    5.2540   -0.0114   -0.0359 H   0  0  0  0  0  0  0  0  0  0  0  0
    4.0312   -0.0061    2.1236 H   0  0  0  0  0  0  0  0  0  0  0  0
    1.5583    0.0018    2.1591 H   0  0  0  0  0  0  0  0  0  0  0  0
   -0.3135    0.0069    0.8662 H   0  0  0  0  0  0  0  0  0  0  0  0
  9  1  1  0
  1  2  1  0
  2  3  2  0
  3 10  1  0
  3  4  1  0
  4 11  1  0
  4  5  2  0
  5 12  1  0
  5  6  1  0
  6 13  1  0
  2  7  1  0
  6  7  2  0
  7  8  1  0
  8 14  1  0
M  END
>  <conformer_energy>  (1) 
4.67

>  <ligand_smiles>  (1) 
Oc1ccccc1O

>  <ligand_conf_name>  (1) 
MOL_0_isomer_0_conf_0

>  <ligand_molecule_name>  (1) 
MOL_0_isomer_0

$$$$
