MOL_0_isomer_0_conf_0
     RDKit          3D

 27 29  0  0  0  0  0  0  0  0999 V2000
   -2.2048    0.1566   -0.8310 C   0  0  0  0  0  0  0  0  0  0  0  0
   -2.4525   -0.1903    0.8231 S   0  0  0  0  0  0  0  0  0  0  0  0
   -0.7671   -0.2585    1.1165 C   0  0  0  0  0  0  0  0  0  0  0  0
   -0.0183   -0.0134   -0.0194 C   0  0  0  0  0  0  0  0  0  0  0  0
    1.4396   -0.0305   -0.0010 C   0  0  0  0  0  0  0  0  0  0  0  0
    2.1427   -0.7172   -0.9997 C   0  0  0  0  0  0  0  0  0  0  0  0
    3.5410   -0.7408   -0.9994 C   0  0  0  0  0  0  0  0  0  0  0  0
    4.2507   -0.0709    0.0024 C   0  0  0  0  0  0  0  0  0  0  0  0
    3.5586    0.6314    1.0130 C   0  0  0  0  0  0  0  0  0  0  0  0
    4.3032    1.2951    1.9923 C   0  0  0  0  0  0  0  0  0  0  0  0
    5.6949    1.2475    1.9554 C   0  0  0  0  0  0  0  0  0  0  0  0
    6.3375    0.5340    0.9474 C   0  0  0  0  0  0  0  0  0  0  0  0
    7.7049    0.4726    0.8578 N   0  0  0  0  0  0  0  0  0  0  0  0
    5.5952   -0.0817    0.0196 N   0  0  0  0  0  4  0  0  0  0  0  0
    2.1537    0.6448    1.0003 C   0  0  0  0  0  0  0  0  0  0  0  0
   -0.8661    0.2184   -1.1513 C   0  0  0  0  0  0  0  0  0  0  0  0
   -3.0523    0.2984   -1.4886 H   0  0  0  0  0  0  0  0  0  0  0  0
   -0.4223   -0.4850    2.1164 H   0  0  0  0  0  0  0  0  0  0  0  0
    1.6009   -1.2517   -1.7805 H   0  0  0  0  0  0  0  0  0  0  0  0
    4.0505   -1.2890   -1.7879 H   0  0  0  0  0  0  0  0  0  0  0  0
    3.8084    1.8541    2.7868 H   0  0  0  0  0  0  0  0  0  0  0  0
    6.2682    1.7715    2.7173 H   0  0  0  0  0  0  0  0  0  0  0  0
    8.2190   -0.0147    0.1369 H   0  0  0  0  0  0  0  0  0  0  0  0
    8.2676    0.8280    1.6269 H   0  0  0  0  0  0  0  0  0  0  0  0
    6.0897   -0.5821   -0.7093 H   0  0  0  0  0  0  0  0  0  0  0  0
    1.6101    1.1966    1.7678 H   0  0  0  0  0  0  0  0  0  0  0  0
   -0.5180    0.4328   -2.1546 H   0  0  0  0  0  0  0  0  0  0  0  0
 17  1  1  0
  1  2  1  0
  2  3  1  0
  3 18  1  0
  3  4  2  0
  4  5  1  0
  5  6  2  0
  6 19  1  0
  6  7  1  0
  7 20  1  0
  7  8  2  0
  8  9  1  0
  9 10  1  0
 10 21  1  0
 10 11  2  0
 11 22  1  0
 11 12  1  0
 12 13  1  0
 13 23  1  0
 13 24  1  0
  8 14  1  0
 12 14  2  0
 14 25  1  0
  5 15  1  0
  9 15  2  0
 15 26  1  0
  1 16  2  0
  4 16  1  0
 16 27  1  0
M  CHG  1  14   1
M  END
>  <conformer_energy>  (1) 
36.92

>  <ligand_smiles>  (1) 
Nc1ccc2cc(-c3ccsc3)ccc2[nH+]1

>  <ligand_conf_name>  (1) 
MOL_0_isomer_0_conf_0

>  <ligand_molecule_name>  (1) 
MOL_0_isomer_0

$$$$
