1XOZ - prepared_ligand_conf_0
     RDKit          3D

 48 53  0  0  0  0  0  0  0  0999 V2000
   -2.1742    1.2608    0.2327 C   0  0  0  0  0  0  0  0  0  0  0  0
   -0.7756    1.2466    0.2676 C   0  0  0  0  0  0  0  0  0  0  0  0
   -0.0344    0.1932   -0.3251 C   0  0  0  0  0  0  0  0  0  0  0  0
    1.4913    0.1748   -0.2936 C   0  0  2  0  0  0  0  0  0  0  0  0
    2.0289    0.2632    1.0975 C   0  0  0  0  0  0  0  0  0  0  0  0
    2.6234    1.3525    1.6912 C   0  0  0  0  0  0  0  0  0  0  0  0
    2.9799    0.9924    3.0159 C   0  0  0  0  0  0  0  0  0  0  0  0
    3.5992    1.6623    4.0884 C   0  0  0  0  0  0  0  0  0  0  0  0
    3.8004    0.9841    5.2962 C   0  0  0  0  0  0  0  0  0  0  0  0
    3.3930   -0.3399    5.4446 C   0  0  0  0  0  0  0  0  0  0  0  0
    2.7733   -1.0258    4.3956 C   0  0  0  0  0  0  0  0  0  0  0  0
    2.5801   -0.3351    3.1933 C   0  0  0  0  0  0  0  0  0  0  0  0
    1.9996   -0.7531    2.0143 N   0  0  0  0  0  0  0  0  0  0  0  0
    2.7734    2.6191    0.9417 C   0  0  0  0  0  0  0  0  0  0  0  0
    2.9292    2.3252   -0.5664 C   0  0  2  0  0  0  0  0  0  0  0  0
    2.7307    3.6451   -1.3424 C   0  0  0  0  0  0  0  0  0  0  0  0
    2.8927    4.7505   -0.8293 O   0  0  0  0  0  0  0  0  0  0  0  0
    2.4929    3.4768   -2.7023 N   0  0  0  0  0  0  0  0  0  0  0  0
    2.3449    4.6260   -3.5723 C   0  0  0  0  0  0  0  0  0  0  0  0
    2.7181    2.1722   -3.3127 C   0  0  0  0  0  0  0  0  0  0  0  0
    2.0725    1.0445   -2.5075 C   0  0  0  0  0  0  0  0  0  0  0  0
    1.7268   -0.0071   -3.0429 O   0  0  0  0  0  0  0  0  0  0  0  0
    2.0504    1.2541   -1.1274 N   0  0  0  0  0  0  0  0  0  0  0  0
   -0.7279   -0.8476   -0.9712 C   0  0  0  0  0  0  0  0  0  0  0  0
   -2.1064   -0.8064   -0.9890 C   0  0  0  0  0  0  0  0  0  0  0  0
   -2.8095    0.2183   -0.4030 C   0  0  0  0  0  0  0  0  0  0  0  0
   -4.1544    0.0681   -0.5354 O   0  0  0  0  0  0  0  0  0  0  0  0
   -4.2163   -1.1637   -1.2834 C   0  0  0  0  0  0  0  0  0  0  0  0
   -2.9204   -1.7318   -1.5642 O   0  0  0  0  0  0  0  0  0  0  0  0
   -2.7390    2.0653    0.6896 H   0  0  0  0  0  0  0  0  0  0  0  0
   -0.2594    2.0639    0.7662 H   0  0  0  0  0  0  0  0  0  0  0  0
    1.8439   -0.7772   -0.7143 H   0  0  0  0  0  0  0  0  0  0  0  0
    3.9175    2.6952    3.9843 H   0  0  0  0  0  0  0  0  0  0  0  0
    4.2780    1.4986    6.1264 H   0  0  0  0  0  0  0  0  0  0  0  0
    3.5568   -0.8483    6.3921 H   0  0  0  0  0  0  0  0  0  0  0  0
    2.4543   -2.0557    4.5171 H   0  0  0  0  0  0  0  0  0  0  0  0
    1.6007   -1.6704    1.8657 H   0  0  0  0  0  0  0  0  0  0  0  0
    3.6388    3.1877    1.3020 H   0  0  0  0  0  0  0  0  0  0  0  0
    1.8859    3.2385    1.1237 H   0  0  0  0  0  0  0  0  0  0  0  0
    3.9596    1.9932   -0.7577 H   0  0  0  0  0  0  0  0  0  0  0  0
    1.5338    4.4358   -4.2808 H   0  0  0  0  0  0  0  0  0  0  0  0
    3.2822    4.7765   -4.1158 H   0  0  0  0  0  0  0  0  0  0  0  0
    2.1143    5.5301   -3.0026 H   0  0  0  0  0  0  0  0  0  0  0  0
    3.7966    1.9955   -3.3767 H   0  0  0  0  0  0  0  0  0  0  0  0
    2.2798    2.1668   -4.3160 H   0  0  0  0  0  0  0  0  0  0  0  0
   -0.2022   -1.6598   -1.4638 H   0  0  0  0  0  0  0  0  0  0  0  0
   -4.8010   -1.8923   -0.7102 H   0  0  0  0  0  0  0  0  0  0  0  0
   -4.7285   -0.9719   -2.2334 H   0  0  0  0  0  0  0  0  0  0  0  0
 30  1  1  0
  1  2  2  0
  2 31  1  0
  2  3  1  0
  3  4  1  0
  4 32  1  6
  4  5  1  0
  5  6  2  0
  6  7  1  0
  7  8  2  0
  8 33  1  0
  8  9  1  0
  9 34  1  0
  9 10  2  0
 10 35  1  0
 10 11  1  0
 11 36  1  0
  7 12  1  0
 11 12  2  0
  5 13  1  0
 12 13  1  0
 13 37  1  0
  6 14  1  0
 14 38  1  0
 14 39  1  0
 14 15  1  0
 15 40  1  1
 15 16  1  0
 16 17  2  0
 16 18  1  0
 18 19  1  0
 19 41  1  0
 19 42  1  0
 19 43  1  0
 18 20  1  0
 20 44  1  0
 20 45  1  0
 20 21  1  0
 21 22  2  0
  4 23  1  0
 15 23  1  0
 21 23  1  0
  3 24  2  0
 24 46  1  0
 24 25  1  0
  1 26  1  0
 25 26  2  0
 26 27  1  0
 27 28  1  0
 28 47  1  0
 28 48  1  0
 25 29  1  0
 28 29  1  0
M  END
>  <conformer_energy>  (1) 
92.03

>  <ligand_smiles>  (1) 
CN1CC(=O)N2[C@H](c3ccc4c(c3)OCO4)c3[nH]c4ccccc4c3C[C@@H]2C1=O

>  <ligand_conf_name>  (1) 
1XOZ - prepared_ligand_conf_0

>  <ligand_molecule_name>  (1) 
1XOZ - prepared_ligand

>  <fragInfo>  (1) 
4 5 6 7 8 9 10 11 12 13 14 15 16 17 18 19 20 21 22 23 32 33 34 35 36 37 38 39 40 41 42 43 44 45
1 2 3 24 25 26 27 28 29 30 31 46 47 48


>  <torsionInfo>  (1) 
3 4 1 0


>  <atomInfo>  (1) 
1  -0.015533 A 
2  -0.052592 A 
3  -0.015500 A 
4  0.098452  C 
5  0.046845  A 
6  -0.014259 A 
7  0.003040  A 
8  -0.052550 A 
9  -0.061509 A 
10 -0.060159 A 
11 -0.037994 A 
12 0.045915  A 
13 -0.356147 N 
14 0.004430  C 
15 0.115912  C 
16 0.245472  C 
17 -0.272468 OA
18 -0.334642 N 
19 0.009807  C 
20 0.099496  C 
21 0.243212  C 
22 -0.272772 OA
23 -0.316131 N 
24 -0.010199 A 
25 0.165659  A 
26 0.165316  A 
27 -0.453595 OA
28 0.230800  C 
29 -0.453583 OA
30 0.066352  H 
31 0.062795  H 
32 0.065080  H 
33 0.062991  H 
34 0.062293  H 
35 0.062346  H 
36 0.064491  H 
37 0.166300  HD
38 0.034362  H 
39 0.034362  H 
40 0.063856  H 
41 0.045733  H 
42 0.045733  H 
43 0.045733  H 
44 0.059707  H 
45 0.059707  H 
46 0.066729  H 
47 0.118355  H 
48 0.118355  H 


$$$$
