MOL_0_isomer_0_conf_0
     RDKit          3D

 34 33  0  0  0  0  0  0  0  0999 V2000
    7.1058    1.6053   -2.5939 C   0  0  0  0  0  0  0  0  0  0  0  0
    5.6936    1.5443   -2.2575 N   0  0  0  0  0  0  0  0  0  0  0  0
    5.3164    1.5330   -0.9292 C   0  0  0  0  0  0  0  0  0  0  0  0
    6.0952    1.5606    0.0152 O   0  0  0  0  0  0  0  0  0  0  0  0
    3.9608    1.4776   -0.7621 O   0  0  0  0  0  0  0  0  0  0  0  0
    3.5476    1.5098    0.6083 C   0  0  0  0  0  0  0  0  0  0  0  0
    2.0317    1.3248    0.6665 C   0  0  0  0  0  0  0  0  0  0  0  0
    1.5143    0.0812   -0.0861 C   0  0  1  0  0  0  0  0  0  0  0  0
    2.1825   -1.2028    0.4169 C   0  0  0  0  0  0  0  0  0  0  0  0
   -0.0195   -0.0365    0.1031 N   0  0  0  0  0  4  0  0  0  0  0  0
   -0.6166   -1.2490   -0.5779 C   0  0  0  0  0  0  0  0  0  0  0  0
   -0.7762    1.1992   -0.3316 C   0  0  0  0  0  0  0  0  0  0  0  0
    4.7629    1.5446   -3.3723 C   0  0  0  0  0  0  0  0  0  0  0  0
    7.2958    2.5316   -3.1442 H   0  0  0  0  0  0  0  0  0  0  0  0
    7.3546    0.7484   -3.2268 H   0  0  0  0  0  0  0  0  0  0  0  0
    7.7430    1.5851   -1.7061 H   0  0  0  0  0  0  0  0  0  0  0  0
    4.0521    0.7263    1.1847 H   0  0  0  0  0  0  0  0  0  0  0  0
    3.8074    2.4835    1.0406 H   0  0  0  0  0  0  0  0  0  0  0  0
    1.7127    1.2996    1.7154 H   0  0  0  0  0  0  0  0  0  0  0  0
    1.5934    2.2207    0.2123 H   0  0  0  0  0  0  0  0  0  0  0  0
    1.6770    0.1895   -1.1650 H   0  0  0  0  0  0  0  0  0  0  0  0
    1.8774   -2.0760   -0.1670 H   0  0  0  0  0  0  0  0  0  0  0  0
    1.9445   -1.3898    1.4694 H   0  0  0  0  0  0  0  0  0  0  0  0
    3.2709   -1.1540    0.3176 H   0  0  0  0  0  0  0  0  0  0  0  0
   -0.1961   -0.1512    1.1104 H   0  0  0  0  0  0  0  0  0  0  0  0
   -0.3196   -1.2382   -1.6296 H   0  0  0  0  0  0  0  0  0  0  0  0
   -1.7048   -1.2015   -0.4791 H   0  0  0  0  0  0  0  0  0  0  0  0
   -0.2643   -2.1460   -0.0653 H   0  0  0  0  0  0  0  0  0  0  0  0
   -0.4928    1.4362   -1.3601 H   0  0  0  0  0  0  0  0  0  0  0  0
   -0.5361    2.0140    0.3541 H   0  0  0  0  0  0  0  0  0  0  0  0
   -1.8479    0.9934   -0.2594 H   0  0  0  0  0  0  0  0  0  0  0  0
    4.8979    2.4698   -3.9403 H   0  0  0  0  0  0  0  0  0  0  0  0
    3.7213    1.4796   -3.0507 H   0  0  0  0  0  0  0  0  0  0  0  0
    4.9855    0.6883   -4.0158 H   0  0  0  0  0  0  0  0  0  0  0  0
 14  1  1  0
  1 15  1  0
  1 16  1  0
  1  2  1  0
  2  3  1  0
  3  4  2  0
  3  5  1  0
  5  6  1  0
  6 17  1  0
  6 18  1  0
  6  7  1  0
  7 19  1  0
  7 20  1  0
  7  8  1  0
  8 21  1  6
  8  9  1  0
  9 22  1  0
  9 23  1  0
  9 24  1  0
  8 10  1  0
 10 25  1  0
 10 11  1  0
 11 26  1  0
 11 27  1  0
 11 28  1  0
 10 12  1  0
 12 29  1  0
 12 30  1  0
 12 31  1  0
  2 13  1  0
 13 32  1  0
 13 33  1  0
 13 34  1  0
M  CHG  1  10   1
M  END
>  <conformer_energy>  (1) 
-38.00

>  <ligand_smiles>  (1) 
C[C@H](CCOC(=O)N(C)C)[NH+](C)C

>  <ligand_conf_name>  (1) 
MOL_0_isomer_0_conf_0

>  <ligand_molecule_name>  (1) 
MOL_0_isomer_0

$$$$
