1TT1 - prepared_ligand1_conf_0
     RDKit          3D

 29 29  0  0  0  0  0  0  0  0999 V2000
   -0.5162   -1.0721   -2.1730 C   0  0  0  0  0  0  0  0  0  0  0  0
    0.8236   -1.0596   -2.0738 C   0  0  0  0  0  0  0  0  0  0  0  0
    1.6175   -2.2934   -2.4233 C   0  0  0  0  0  0  0  0  0  0  0  0
    1.6560    0.1257   -1.6110 C   0  0  1  0  0  0  0  0  0  0  0  0
    1.0457    1.5389   -1.6623 C   0  0  0  0  0  0  0  0  0  0  0  0
    1.6682    2.2857   -0.5419 N   0  0  0  0  0  0  0  0  0  0  0  0
    2.7825    1.4175    0.0366 C   0  0  2  0  0  0  0  0  0  0  0  0
    4.1545    1.7450   -0.6445 C   0  0  0  0  0  0  0  0  0  0  0  0
    4.1297    2.8725   -1.2371 O   0  0  0  0  0  0  0  0  0  0  0  0
    5.0614    0.8806   -0.5643 O   0  0  0  0  0  0  0  0  0  0  0  0
    2.2383    0.0060   -0.1826 C   0  0  1  0  0  0  0  0  0  0  0  0
    1.2387   -0.4429    0.9109 C   0  0  0  0  0  0  0  0  0  0  0  0
   -0.0396    0.3641    1.1664 C   0  0  0  0  0  0  0  0  0  0  0  0
   -1.1031   -0.3001    1.2535 O   0  0  0  0  0  0  0  0  0  0  0  0
    0.1190    1.6223    1.2193 O   0  0  0  0  0  0  0  0  0  0  0  0
   -1.0502   -1.9637   -2.4892 H   0  0  0  0  0  0  0  0  0  0  0  0
   -1.1424   -0.2371   -1.8764 H   0  0  0  0  0  0  0  0  0  0  0  0
    2.3234   -2.0750   -3.2313 H   0  0  0  0  0  0  0  0  0  0  0  0
    0.9771   -3.1163   -2.7583 H   0  0  0  0  0  0  0  0  0  0  0  0
    2.1805   -2.6469   -1.5538 H   0  0  0  0  0  0  0  0  0  0  0  0
    2.5102    0.1654   -2.3061 H   0  0  0  0  0  0  0  0  0  0  0  0
   -0.0350    1.5886   -1.5174 H   0  0  0  0  0  0  0  0  0  0  0  0
    1.3061    2.0567   -2.5912 H   0  0  0  0  0  0  0  0  0  0  0  0
    0.9689    2.4038    0.2348 H   0  0  0  0  0  0  0  0  0  0  0  0
    2.1261    3.1681   -0.8132 H   0  0  0  0  0  0  0  0  0  0  0  0
    2.8736    1.6802    1.0966 H   0  0  0  0  0  0  0  0  0  0  0  0
    3.0579   -0.7232   -0.1847 H   0  0  0  0  0  0  0  0  0  0  0  0
    1.7736   -0.4643    1.8703 H   0  0  0  0  0  0  0  0  0  0  0  0
    0.9533   -1.4844    0.7138 H   0  0  0  0  0  0  0  0  0  0  0  0
 16  1  1  0
  1 17  1  0
  1  2  2  0
  2  3  1  0
  3 18  1  0
  3 19  1  0
  3 20  1  0
  2  4  1  0
  4 21  1  6
  4  5  1  0
  5 22  1  0
  5 23  1  0
  5  6  1  0
  6 24  1  0
  6 25  1  0
  6  7  1  0
  7 26  1  1
  7  8  1  0
  8  9  2  0
  8 10  1  0
  4 11  1  0
  7 11  1  0
 11 27  1  6
 11 12  1  0
 12 28  1  0
 12 29  1  0
 12 13  1  0
 13 14  2  0
 13 15  1  0
M  CHG  3   6   1  10  -1  15  -1
M  END
>  <conformer_energy>  (1) 
-6.81

>  <ligand_smiles>  (1) 
C=C(C)[C@H]1C[NH2+][C@H](C(=O)[O-])[C@H]1CC(=O)[O-]

>  <ligand_conf_name>  (1) 
1TT1 - prepared_ligand1_conf_0

>  <ligand_molecule_name>  (1) 
1TT1 - prepared_ligand1

>  <fragInfo>  (1) 
4 5 6 7 11 21 22 23 24 25 26 27
1 2 3 16 17 18 19 20
8 9 10
12 28 29
13 14 15


>  <torsionInfo>  (1) 
2 4 1 0
7 8 0 2
11 12 0 3
12 13 3 4


>  <atomInfo>  (1) 
1  -0.099625 C 
2  -0.071316 C 
3  -0.043687 C 
4  0.037719  C 
5  0.083140  C 
6  -0.338293 N 
7  0.130039  C 
8  0.099477  C 
9  -0.543888 OA
10 -0.543888 OA
11 0.033668  C 
12 -0.003414 C 
13 0.041938  C 
14 -0.550156 OA
15 -0.550156 OA
16 0.053732  H 
17 0.053732  H 
18 0.027625  H 
19 0.027625  H 
20 0.027625  H 
21 0.041266  H 
22 0.092957  H 
23 0.092957  H 
24 0.346392  HD
25 0.346392  HD
26 0.103233  H 
27 0.038082  H 
28 0.033412  H 
29 0.033412  H 


$$$$
