1X8X - prepared_ligand_conf_0
     RDKit          3D

 23 23  0  0  0  0  0  0  0  0999 V2000
    5.7005    0.1676   -0.0388 O   0  0  0  0  0  0  0  0  0  0  0  0
    4.3368    0.1032   -0.0370 C   0  0  0  0  0  0  0  0  0  0  0  0
    3.6265    1.2832   -0.2182 C   0  0  0  0  0  0  0  0  0  0  0  0
    2.2306    1.2563   -0.2106 C   0  0  0  0  0  0  0  0  0  0  0  0
    1.5421    0.0477   -0.0297 C   0  0  0  0  0  0  0  0  0  0  0  0
    0.0264    0.0177   -0.0135 C   0  0  0  0  0  0  0  0  0  0  0  0
   -0.6302    0.0052    1.3733 C   0  0  1  0  0  0  0  0  0  0  0  0
   -0.4653   -1.3560    2.1510 C   0  0  0  0  0  0  0  0  0  0  0  0
   -0.2977   -1.2285    3.4040 O   0  0  0  0  0  0  0  0  0  0  0  0
   -0.5469   -2.4079    1.4561 O   0  0  0  0  0  0  0  0  0  0  0  0
   -0.1820    1.1467    2.2478 N   0  0  0  0  0  0  0  0  0  0  0  0
    2.2783   -1.1312    0.1492 C   0  0  0  0  0  0  0  0  0  0  0  0
    3.6741   -1.1060    0.1478 C   0  0  0  0  0  0  0  0  0  0  0  0
    6.0309   -0.7165    0.1895 H   0  0  0  0  0  0  0  0  0  0  0  0
    4.1529    2.2223   -0.3521 H   0  0  0  0  0  0  0  0  0  0  0  0
    1.6750    2.1834   -0.3301 H   0  0  0  0  0  0  0  0  0  0  0  0
   -0.3420    0.8923   -0.5672 H   0  0  0  0  0  0  0  0  0  0  0  0
   -0.3070   -0.8478   -0.6008 H   0  0  0  0  0  0  0  0  0  0  0  0
   -1.7126    0.1247    1.2363 H   0  0  0  0  0  0  0  0  0  0  0  0
    0.8293    1.0182    2.3496 H   0  0  0  0  0  0  0  0  0  0  0  0
   -0.4963    0.8375    3.1840 H   0  0  0  0  0  0  0  0  0  0  0  0
    1.7585   -2.0766    0.3053 H   0  0  0  0  0  0  0  0  0  0  0  0
    4.2125   -2.0351    0.2992 H   0  0  0  0  0  0  0  0  0  0  0  0
 14  1  1  0
  1  2  1  0
  2  3  2  0
  3 15  1  0
  3  4  1  0
  4 16  1  0
  4  5  2  0
  5  6  1  0
  6 17  1  0
  6 18  1  0
  6  7  1  0
  7 19  1  6
  7  8  1  0
  8  9  2  0
  8 10  1  0
  7 11  1  0
 11 20  1  0
 11 21  1  0
  5 12  1  0
 12 22  1  0
  2 13  1  0
 12 13  2  0
 13 23  1  0
M  CHG  1  10  -1
M  END
>  <conformer_energy>  (1) 
82.94

>  <ligand_smiles>  (1) 
N[C@@H](Cc1ccc(O)cc1)C(=O)[O-]

>  <ligand_conf_name>  (1) 
1X8X - prepared_ligand_conf_0

>  <ligand_molecule_name>  (1) 
1X8X - prepared_ligand

>  <fragInfo>  (1) 
1 2 3 4 5 12 13 14 15 16 22 23
6 17 18
7 11 19 20 21
8 9 10


>  <torsionInfo>  (1) 
5 6 0 1
6 7 1 2
7 8 2 3


>  <atomInfo>  (1) 
1  -0.507967 OA
2  0.115095  A 
3  -0.019954 A 
4  -0.055298 A 
5  -0.045822 A 
6  -0.007206 C 
7  0.048315  C 
8  0.058507  C 
9  -0.548440 OA
10 -0.548440 OA
11 -0.322674 NA
12 -0.055298 A 
13 -0.019954 A 
14 0.293092  HD
15 0.066191  H 
16 0.062698  H 
17 0.033597  H 
18 0.033597  H 
19 0.053005  H 
20 0.119033  HD
21 0.119033  HD
22 0.062698  H 
23 0.066191  H 


$$$$
