MOL_0_isomer_0_conf_0
     RDKit          3D

 72 76  0  0  0  0  0  0  0  0999 V2000
    0.8305   -8.8452    0.7085 O   0  0  0  0  0  0  0  0  0  0  0  0
    0.6632   -7.6000    0.0309 C   0  0  1  0  0  0  0  0  0  0  0  0
    1.4047   -7.6124   -1.2909 C   0  0  1  0  0  0  0  0  0  0  0  0
    1.2751   -8.9201   -1.8875 O   0  0  0  0  0  0  0  0  0  0  0  0
    0.6383   -6.5600   -2.0986 C   0  0  2  0  0  0  0  0  0  0  0  0
    1.2758   -5.2561   -2.0612 N   0  0  0  0  0  0  0  0  0  0  0  0
    1.1059   -4.2672   -1.1327 C   0  0  0  0  0  0  0  0  0  0  0  0
    1.8580   -3.2140   -1.3941 N   0  0  0  0  0  0  0  0  0  0  0  0
    2.5419   -3.5431   -2.5434 C   0  0  0  0  0  0  0  0  0  0  0  0
    3.4863   -2.8483   -3.3191 C   0  0  0  0  0  0  0  0  0  0  0  0
    3.9375   -1.5916   -2.9952 N   0  0  0  0  0  0  0  0  0  0  0  0
    3.9741   -3.4452   -4.4345 N   0  0  0  0  0  0  0  0  0  0  0  0
    3.5322   -4.6855   -4.7330 C   0  0  0  0  0  0  0  0  0  0  0  0
    2.6438   -5.4500   -4.0679 N   0  0  0  0  0  0  0  0  0  0  0  0
    2.1866   -4.8086   -2.9781 C   0  0  0  0  0  0  0  0  0  0  0  0
   -0.6953   -6.4473   -1.5456 O   0  0  0  0  0  0  0  0  0  0  0  0
   -0.7730   -7.3473   -0.4285 C   0  0  2  0  0  0  0  0  0  0  0  0
   -1.6453   -6.7850    0.6838 C   0  0  0  0  0  0  0  0  0  0  0  0
   -1.4236   -7.5864    1.8276 O   0  0  0  0  0  0  0  0  0  0  0  0
   -1.4328   -6.8217    3.2811 P   0  0  2  0  0  5  0  0  0  0  0  0
   -1.0666   -7.9211    4.2507 O   0  0  0  0  0  0  0  0  0  0  0  0
   -2.7610   -6.1113    3.3220 O   0  0  0  0  0  1  0  0  0  0  0  0
   -0.1918   -5.8472    2.9925 O   0  0  0  0  0  0  0  0  0  0  0  0
    0.4150   -4.6183    3.8131 P   0  0  1  0  0  5  0  0  0  0  0  0
   -0.4570   -3.3844    3.7393 O   0  0  0  0  0  0  0  0  0  0  0  0
    1.0717   -5.0434    5.1043 O   0  0  0  0  0  1  0  0  0  0  0  0
    1.6541   -4.2674    2.8000 O   0  0  0  0  0  0  0  0  0  0  0  0
    2.7142   -5.2012    2.6772 C   0  0  0  0  0  0  0  0  0  0  0  0
    4.0644   -4.5759    3.0420 C   0  0  1  0  0  0  0  0  0  0  0  0
    4.2881   -3.3871    2.2309 O   0  0  0  0  0  0  0  0  0  0  0  0
    3.9118   -2.2704    3.0504 C   0  0  2  0  0  0  0  0  0  0  0  0
    4.5792   -1.0772    2.5571 N   0  0  0  0  0  0  0  0  0  0  0  0
    4.0307   -0.1607    1.6818 C   0  0  0  0  0  0  0  0  0  0  0  0
    4.6960    1.0649    1.5030 C   0  0  0  0  0  0  0  0  0  0  0  0
    4.1612    2.0806    0.7050 C   0  0  0  0  0  0  0  0  0  0  0  0
    2.9423    1.8841    0.0672 C   0  0  0  0  0  0  0  0  0  0  0  0
    2.2861    0.6568    0.1859 C   0  0  0  0  0  0  0  0  0  0  0  0
    0.9521    0.5177   -0.4581 C   0  0  0  0  0  0  0  0  0  0  0  0
    0.2368    1.4977   -0.6608 O   0  0  0  0  0  0  0  0  0  0  0  0
    0.5640   -0.7326   -0.8307 N   0  0  0  0  0  0  0  0  0  0  0  0
    2.8384   -0.3674    0.9776 C   0  0  0  0  0  0  0  0  0  0  0  0
    4.4975   -2.6528    4.4145 C   0  0  2  0  0  0  0  0  0  0  0  0
    5.9535   -2.4880    4.3979 O   0  0  0  0  0  0  0  0  0  0  0  0
    4.1936   -4.1426    4.5072 C   0  0  2  0  0  0  0  0  0  0  0  0
    5.3006   -4.8245    5.1389 O   0  0  0  0  0  0  0  0  0  0  0  0
    0.2741   -8.7671    1.5219 H   0  0  0  0  0  0  0  0  0  0  0  0
    1.0355   -6.7864    0.6641 H   0  0  0  0  0  0  0  0  0  0  0  0
    2.4774   -7.4128   -1.1799 H   0  0  0  0  0  0  0  0  0  0  0  0
    1.2722   -9.5304   -1.1157 H   0  0  0  0  0  0  0  0  0  0  0  0
    0.5262   -6.8479   -3.1493 H   0  0  0  0  0  0  0  0  0  0  0  0
    0.4258   -4.3594   -0.2949 H   0  0  0  0  0  0  0  0  0  0  0  0
    4.6715   -1.1941   -3.5653 H   0  0  0  0  0  0  0  0  0  0  0  0
    3.6867   -1.1975   -2.0928 H   0  0  0  0  0  0  0  0  0  0  0  0
    3.9423   -5.1217   -5.6431 H   0  0  0  0  0  0  0  0  0  0  0  0
   -1.2153   -8.2918   -0.7746 H   0  0  0  0  0  0  0  0  0  0  0  0
   -2.7090   -6.8211    0.4080 H   0  0  0  0  0  0  0  0  0  0  0  0
   -1.3964   -5.7283    0.8675 H   0  0  0  0  0  0  0  0  0  0  0  0
    2.5207   -6.1071    3.2547 H   0  0  0  0  0  0  0  0  0  0  0  0
    2.7500   -5.4868    1.6222 H   0  0  0  0  0  0  0  0  0  0  0  0
    4.8525   -5.2896    2.7739 H   0  0  0  0  0  0  0  0  0  0  0  0
    2.8249   -2.1559    3.1158 H   0  0  0  0  0  0  0  0  0  0  0  0
    5.4308   -0.8313    3.0544 H   0  0  0  0  0  0  0  0  0  0  0  0
    5.6320    1.2485    2.0226 H   0  0  0  0  0  0  0  0  0  0  0  0
    4.6784    3.0296    0.6126 H   0  0  0  0  0  0  0  0  0  0  0  0
    2.5004    2.6834   -0.5225 H   0  0  0  0  0  0  0  0  0  0  0  0
    1.1404   -1.5724   -0.7547 H   0  0  0  0  0  0  0  0  0  0  0  0
   -0.3828   -0.8593   -1.1672 H   0  0  0  0  0  0  0  0  0  0  0  0
    2.3156   -1.3166    1.0710 H   0  0  0  0  0  0  0  0  0  0  0  0
    4.1097   -2.0592    5.2472 H   0  0  0  0  0  0  0  0  0  0  0  0
    6.2133   -2.8265    3.5139 H   0  0  0  0  0  0  0  0  0  0  0  0
    3.3014   -4.3232    5.1022 H   0  0  0  0  0  0  0  0  0  0  0  0
    5.9470   -4.1203    5.3480 H   0  0  0  0  0  0  0  0  0  0  0  0
 46  1  1  0
  1  2  1  0
  2 47  1  1
  2  3  1  0
  3 48  1  1
  3  4  1  0
  4 49  1  0
  3  5  1  0
  5 50  1  6
  5  6  1  0
  6  7  1  0
  7 51  1  0
  7  8  2  0
  8  9  1  0
  9 10  1  0
 10 11  1  0
 11 52  1  0
 11 53  1  0
 10 12  2  0
 12 13  1  0
 13 54  1  0
 13 14  2  0
  9 15  2  0
  6 15  1  0
 14 15  1  0
  5 16  1  0
  2 17  1  0
 16 17  1  0
 17 55  1  6
 17 18  1  0
 18 56  1  0
 18 57  1  0
 18 19  1  0
 19 20  1  0
 20 21  2  0
 20 22  1  1
 20 23  1  0
 23 24  1  0
 24 25  2  0
 24 26  1  1
 24 27  1  0
 27 28  1  0
 28 58  1  0
 28 59  1  0
 28 29  1  0
 29 60  1  6
 29 30  1  0
 30 31  1  0
 31 61  1  1
 31 32  1  0
 32 62  1  0
 32 33  1  0
 33 34  2  0
 34 63  1  0
 34 35  1  0
 35 64  1  0
 35 36  2  0
 36 65  1  0
 36 37  1  0
 37 38  1  0
 38 39  2  0
 38 40  1  0
 40 66  1  0
 40 67  1  0
 33 41  1  0
 37 41  2  0
 41 68  1  0
 31 42  1  0
 42 69  1  1
 42 43  1  0
 43 70  1  0
 29 44  1  0
 42 44  1  0
 44 71  1  1
 44 45  1  0
 45 72  1  0
M  CHG  2  22  -1  26  -1
M  END
>  <conformer_energy>  (1) 
-40.12

>  <ligand_smiles>  (1) 
NC(=O)c1cccc(N[C@H]2O[C@H](CO[P@](=O)([O-])O[P@@](=O)([O-])OC[C@H]3O[C@@H](n4cnc5c(N)ncnc54)[C@H](O)[C@@H]3O)[C@@H](O)[C@H]2O)c1

>  <ligand_conf_name>  (1) 
MOL_0_isomer_0_conf_0

>  <ligand_molecule_name>  (1) 
MOL_0_isomer_0

$$$$
