MOL_0_isomer_0_chiral_N_isomer_0_conf_0
     RDKit          3D

 82 86  0  0  0  0  0  0  0  0999 V2000
    7.4918   -3.4944    3.3596 O   0  0  0  0  0  0  0  0  0  0  0  0
    6.9195   -2.2542    3.8209 C   0  0  2  0  0  0  0  0  0  0  0  0
    5.5277   -2.0458    3.1886 C   0  0  1  0  0  0  0  0  0  0  0  0
    4.7342   -3.2364    3.3438 O   0  0  0  0  0  0  0  0  0  0  0  0
    4.7486   -0.8128    3.7195 C   0  0  1  0  0  0  0  0  0  0  0  0
    4.5338   -0.7793    5.2471 C   0  0  0  0  0  0  0  0  0  0  0  0
    3.8619   -1.9877    5.6391 O   0  0  0  0  0  0  0  0  0  0  0  0
    3.3540   -1.9099    6.9065 C   0  0  0  0  0  0  0  0  0  0  0  0
    1.9866   -2.1394    7.0612 C   0  0  0  0  0  0  0  0  0  0  0  0
    1.4165   -2.1002    8.3342 C   0  0  0  0  0  0  0  0  0  0  0  0
    2.2167   -1.8518    9.4500 C   0  0  0  0  0  0  0  0  0  0  0  0
    3.5897   -1.6516    9.2940 C   0  0  0  0  0  0  0  0  0  0  0  0
    4.1615   -1.6891    8.0207 C   0  0  0  0  0  0  0  0  0  0  0  0
    5.3429    0.4323    3.1339 N   0  0  0  0  0  0  0  0  0  0  0  0
    4.3288    1.3222    2.5048 C   0  0  0  0  0  0  0  0  0  0  0  0
    3.8871    0.8119    1.1515 C   0  0  0  0  0  0  0  0  0  0  0  0
    4.7886    0.7753    0.0767 C   0  0  0  0  0  0  0  0  0  0  0  0
    4.3968    0.2640   -1.1613 C   0  0  0  0  0  0  0  0  0  0  0  0
    3.0964   -0.2069   -1.3464 C   0  0  0  0  0  0  0  0  0  0  0  0
    2.1727   -0.1410   -0.2945 C   0  0  0  0  0  0  0  0  0  0  0  0
    0.7647   -0.6056   -0.4419 C   0  0  0  0  0  0  0  0  0  0  0  0
    0.1372   -0.9851    0.5390 O   0  0  0  0  0  0  0  0  0  0  0  0
    0.2223   -0.5363   -1.7080 N   0  0  0  0  0  0  0  0  0  0  0  0
   -1.1407   -0.9406   -1.9522 C   0  0  0  0  0  0  0  0  0  0  0  0
    2.5766    0.3516    0.9538 C   0  0  0  0  0  0  0  0  0  0  0  0
    6.5423    1.2705    3.9358 S   0  0  0  0  0  6  0  0  0  0  0  0
    5.9499    1.8946    5.0927 O   0  0  0  0  0  0  0  0  0  0  0  0
    7.2643    2.0506    2.9601 O   0  0  0  0  0  0  0  0  0  0  0  0
    7.5549    0.0602    4.4709 N   0  0  0  0  0  0  0  0  0  0  0  0
    8.6963    0.5649    5.2826 C   0  0  0  0  0  0  0  0  0  0  0  0
    8.9520   -0.2980    6.4961 C   0  0  0  0  0  0  0  0  0  0  0  0
   10.0893   -1.1150    6.5758 C   0  0  0  0  0  0  0  0  0  0  0  0
   10.2966   -1.9255    7.6945 C   0  0  0  0  0  0  0  0  0  0  0  0
    9.3715   -1.9276    8.7407 C   0  0  0  0  0  0  0  0  0  0  0  0
    8.2402   -1.1138    8.6746 C   0  0  0  0  0  0  0  0  0  0  0  0
    8.0322   -0.3025    7.5578 C   0  0  0  0  0  0  0  0  0  0  0  0
    7.9199   -1.0896    3.5834 C   0  0  2  0  0  0  0  0  0  0  0  0
    8.1515   -0.7204    2.1016 C   0  0  0  0  0  0  0  0  0  0  0  0
    8.5526   -1.9020    1.3842 O   0  0  0  0  0  0  0  0  0  0  0  0
    8.6455   -1.6396    0.0464 C   0  0  0  0  0  0  0  0  0  0  0  0
    9.8474   -1.1759   -0.4853 C   0  0  0  0  0  0  0  0  0  0  0  0
    9.9481   -0.9455   -1.8564 C   0  0  0  0  0  0  0  0  0  0  0  0
    8.8542   -1.1927   -2.6881 C   0  0  0  0  0  0  0  0  0  0  0  0
    7.6617   -1.6822   -2.1492 C   0  0  0  0  0  0  0  0  0  0  0  0
    7.5569   -1.9119   -0.7787 C   0  0  0  0  0  0  0  0  0  0  0  0
    7.5953   -3.4302    2.3897 H   0  0  0  0  0  0  0  0  0  0  0  0
    6.7994   -2.4091    4.9009 H   0  0  0  0  0  0  0  0  0  0  0  0
    5.6456   -1.9502    2.1022 H   0  0  0  0  0  0  0  0  0  0  0  0
    4.6159   -3.3911    4.3018 H   0  0  0  0  0  0  0  0  0  0  0  0
    3.7356   -0.9355    3.3120 H   0  0  0  0  0  0  0  0  0  0  0  0
    3.9151    0.0927    5.5034 H   0  0  0  0  0  0  0  0  0  0  0  0
    5.4801   -0.7082    5.7892 H   0  0  0  0  0  0  0  0  0  0  0  0
    1.3649   -2.3413    6.1935 H   0  0  0  0  0  0  0  0  0  0  0  0
    0.3479   -2.2679    8.4576 H   0  0  0  0  0  0  0  0  0  0  0  0
    1.7696   -1.8238   10.4412 H   0  0  0  0  0  0  0  0  0  0  0  0
    4.2142   -1.4778   10.1663 H   0  0  0  0  0  0  0  0  0  0  0  0
    5.2350   -1.5685    7.9156 H   0  0  0  0  0  0  0  0  0  0  0  0
    3.4709    1.4325    3.1809 H   0  0  0  0  0  0  0  0  0  0  0  0
    4.7237    2.3350    2.3546 H   0  0  0  0  0  0  0  0  0  0  0  0
    5.8079    1.1368    0.2062 H   0  0  0  0  0  0  0  0  0  0  0  0
    5.1134    0.2221   -1.9794 H   0  0  0  0  0  0  0  0  0  0  0  0
    2.8254   -0.6344   -2.3076 H   0  0  0  0  0  0  0  0  0  0  0  0
    0.7338   -0.0926   -2.4572 H   0  0  0  0  0  0  0  0  0  0  0  0
   -1.3742   -1.8523   -1.3907 H   0  0  0  0  0  0  0  0  0  0  0  0
   -1.2640   -1.1202   -3.0223 H   0  0  0  0  0  0  0  0  0  0  0  0
   -1.8051   -0.1293   -1.6341 H   0  0  0  0  0  0  0  0  0  0  0  0
    1.8589    0.3729    1.7750 H   0  0  0  0  0  0  0  0  0  0  0  0
    9.5936    0.6270    4.6560 H   0  0  0  0  0  0  0  0  0  0  0  0
    8.5155    1.5845    5.6402 H   0  0  0  0  0  0  0  0  0  0  0  0
   10.8191   -1.1355    5.7659 H   0  0  0  0  0  0  0  0  0  0  0  0
   11.1782   -2.5624    7.7448 H   0  0  0  0  0  0  0  0  0  0  0  0
    9.5256   -2.5714    9.6049 H   0  0  0  0  0  0  0  0  0  0  0  0
    7.5186   -1.1209    9.4908 H   0  0  0  0  0  0  0  0  0  0  0  0
    7.1453    0.3304    7.5146 H   0  0  0  0  0  0  0  0  0  0  0  0
    8.8904   -1.4878    3.9126 H   0  0  0  0  0  0  0  0  0  0  0  0
    8.9471    0.0326    2.0390 H   0  0  0  0  0  0  0  0  0  0  0  0
    7.2527   -0.3075    1.6381 H   0  0  0  0  0  0  0  0  0  0  0  0
   10.7013   -0.9999    0.1620 H   0  0  0  0  0  0  0  0  0  0  0  0
   10.8827   -0.5841   -2.2799 H   0  0  0  0  0  0  0  0  0  0  0  0
    8.9333   -1.0169   -3.7575 H   0  0  0  0  0  0  0  0  0  0  0  0
    6.8167   -1.8905   -2.7996 H   0  0  0  0  0  0  0  0  0  0  0  0
    6.6318   -2.3022   -0.3622 H   0  0  0  0  0  0  0  0  0  0  0  0
 46  1  1  0
  1  2  1  0
  2 47  1  1
  2  3  1  0
  3 48  1  6
  3  4  1  0
  4 49  1  0
  3  5  1  0
  5 50  1  6
  5  6  1  0
  6 51  1  0
  6 52  1  0
  6  7  1  0
  7  8  1  0
  8  9  2  0
  9 53  1  0
  9 10  1  0
 10 54  1  0
 10 11  2  0
 11 55  1  0
 11 12  1  0
 12 56  1  0
  8 13  1  0
 12 13  2  0
 13 57  1  0
  5 14  1  0
 14 15  1  1
 15 58  1  0
 15 59  1  0
 15 16  1  0
 16 17  2  0
 17 60  1  0
 17 18  1  0
 18 61  1  0
 18 19  2  0
 19 62  1  0
 19 20  1  0
 20 21  1  0
 21 22  2  0
 21 23  1  0
 23 63  1  0
 23 24  1  0
 24 64  1  0
 24 65  1  0
 24 66  1  0
 16 25  1  0
 20 25  2  0
 25 67  1  0
 14 26  1  0
 26 27  2  0
 26 28  2  0
 26 29  1  0
 29 30  1  1
 30 68  1  0
 30 69  1  0
 30 31  1  0
 31 32  2  0
 32 70  1  0
 32 33  1  0
 33 71  1  0
 33 34  2  0
 34 72  1  0
 34 35  1  0
 35 73  1  0
 31 36  1  0
 35 36  2  0
 36 74  1  0
  2 37  1  0
 29 37  1  0
 37 75  1  1
 37 38  1  0
 38 76  1  0
 38 77  1  0
 38 39  1  0
 39 40  1  0
 40 41  2  0
 41 78  1  0
 41 42  1  0
 42 79  1  0
 42 43  2  0
 43 80  1  0
 43 44  1  0
 44 81  1  0
 40 45  1  0
 44 45  2  0
 45 82  1  0
M  END
>  <conformer_energy>  (1) 
-36.66

>  <ligand_smiles>  (1) 
CNC(=O)c1cccc(CN2[C@H](COc3ccccc3)[C@H](O)[C@@H](O)[C@@H](COc3ccccc3)N(Cc3ccccc3)S2(=O)=O)c1

>  <ligand_conf_name>  (1) 
MOL_0_isomer_0_chiral_N_isomer_0_conf_0

>  <ligand_molecule_name>  (1) 
MOL_0_isomer_0_chiral_N_isomer_0

$$$$
MOL_0_isomer_0_chiral_N_isomer_1_conf_0
     RDKit          3D

 82 86  0  0  0  0  0  0  0  0999 V2000
    7.8253    0.9457   -5.3045 O   0  0  0  0  0  0  0  0  0  0  0  0
    7.7678    0.8804   -3.8654 C   0  0  2  0  0  0  0  0  0  0  0  0
    7.5060   -0.5877   -3.4382 C   0  0  1  0  0  0  0  0  0  0  0  0
    7.8230   -0.7437   -2.0471 O   0  0  0  0  0  0  0  0  0  0  0  0
    6.0556   -1.0414   -3.7385 C   0  0  1  0  0  0  0  0  0  0  0  0
    5.8632   -2.5709   -3.8553 C   0  0  0  0  0  0  0  0  0  0  0  0
    6.4913   -3.2905   -2.7915 O   0  0  0  0  0  0  0  0  0  0  0  0
    6.4712   -4.6463   -2.9778 C   0  0  0  0  0  0  0  0  0  0  0  0
    7.6885   -5.3145   -2.8316 C   0  0  0  0  0  0  0  0  0  0  0  0
    7.7471   -6.7015   -2.9854 C   0  0  0  0  0  0  0  0  0  0  0  0
    6.5834   -7.4211   -3.2619 C   0  0  0  0  0  0  0  0  0  0  0  0
    5.3588   -6.7566   -3.3757 C   0  0  0  0  0  0  0  0  0  0  0  0
    5.3008   -5.3670   -3.2302 C   0  0  0  0  0  0  0  0  0  0  0  0
    5.1407   -0.3279   -2.7675 N   0  0  0  0  0  0  0  0  0  0  0  0
    4.5118   -1.1596   -1.7202 C   0  0  0  0  0  0  0  0  0  0  0  0
    4.0591   -0.4103   -0.4842 C   0  0  0  0  0  0  0  0  0  0  0  0
    4.9945    0.0692    0.4454 C   0  0  0  0  0  0  0  0  0  0  0  0
    4.5700    0.7746    1.5756 C   0  0  0  0  0  0  0  0  0  0  0  0
    3.2121    1.0278    1.7777 C   0  0  0  0  0  0  0  0  0  0  0  0
    2.2743    0.5819    0.8425 C   0  0  0  0  0  0  0  0  0  0  0  0
    0.8411    0.9150    1.0400 C   0  0  0  0  0  0  0  0  0  0  0  0
    0.3583    0.9770    2.1673 O   0  0  0  0  0  0  0  0  0  0  0  0
    0.1207    1.1635   -0.1207 N   0  0  0  0  0  0  0  0  0  0  0  0
   -1.2810    1.4804   -0.0766 C   0  0  0  0  0  0  0  0  0  0  0  0
    2.6941   -0.1597   -0.2700 C   0  0  0  0  0  0  0  0  0  0  0  0
    4.2266    0.8947   -3.4594 S   0  0  0  0  0  6  0  0  0  0  0  0
    3.3866    0.2745   -4.4550 O   0  0  0  0  0  0  0  0  0  0  0  0
    3.6741    1.7666   -2.4514 O   0  0  0  0  0  0  0  0  0  0  0  0
    5.4746    1.7764   -4.2426 N   0  0  0  0  0  0  0  0  0  0  0  0
    4.9550    3.0305   -4.8735 C   0  0  0  0  0  0  0  0  0  0  0  0
    4.0692    2.8222   -6.0809 C   0  0  0  0  0  0  0  0  0  0  0  0
    2.6856    3.0480   -6.0041 C   0  0  0  0  0  0  0  0  0  0  0  0
    1.8772    2.8868   -7.1339 C   0  0  0  0  0  0  0  0  0  0  0  0
    2.4419    2.4969   -8.3448 C   0  0  0  0  0  0  0  0  0  0  0  0
    3.8143    2.2607   -8.4312 C   0  0  0  0  0  0  0  0  0  0  0  0
    4.6235    2.4210   -7.3057 C   0  0  0  0  0  0  0  0  0  0  0  0
    6.7276    1.9327   -3.3579 C   0  0  2  0  0  0  0  0  0  0  0  0
    7.3676    3.3362   -3.3894 C   0  0  0  0  0  0  0  0  0  0  0  0
    8.4386    3.4021   -2.4322 O   0  0  0  0  0  0  0  0  0  0  0  0
    9.0308    4.6372   -2.4782 C   0  0  0  0  0  0  0  0  0  0  0  0
    8.7682    5.5449   -1.4531 C   0  0  0  0  0  0  0  0  0  0  0  0
    9.3695    6.8059   -1.4750 C   0  0  0  0  0  0  0  0  0  0  0  0
   10.2391    7.1472   -2.5139 C   0  0  0  0  0  0  0  0  0  0  0  0
   10.5176    6.2228   -3.5242 C   0  0  0  0  0  0  0  0  0  0  0  0
    9.9203    4.9603   -3.5036 C   0  0  0  0  0  0  0  0  0  0  0  0
    6.8992    1.0878   -5.5913 H   0  0  0  0  0  0  0  0  0  0  0  0
    8.7655    1.1469   -3.4981 H   0  0  0  0  0  0  0  0  0  0  0  0
    8.1888   -1.2358   -4.0059 H   0  0  0  0  0  0  0  0  0  0  0  0
    8.7908   -0.6935   -1.9615 H   0  0  0  0  0  0  0  0  0  0  0  0
    5.8125   -0.7008   -4.7547 H   0  0  0  0  0  0  0  0  0  0  0  0
    6.3225   -2.8948   -4.7993 H   0  0  0  0  0  0  0  0  0  0  0  0
    4.7917   -2.7966   -3.9073 H   0  0  0  0  0  0  0  0  0  0  0  0
    8.5923   -4.7566   -2.5983 H   0  0  0  0  0  0  0  0  0  0  0  0
    8.6977   -7.2191   -2.8829 H   0  0  0  0  0  0  0  0  0  0  0  0
    6.6281   -8.5041   -3.3706 H   0  0  0  0  0  0  0  0  0  0  0  0
    4.4486   -7.3190   -3.5720 H   0  0  0  0  0  0  0  0  0  0  0  0
    4.3342   -4.8733   -3.2888 H   0  0  0  0  0  0  0  0  0  0  0  0
    3.6735   -1.7179   -2.1577 H   0  0  0  0  0  0  0  0  0  0  0  0
    5.2206   -1.9081   -1.3563 H   0  0  0  0  0  0  0  0  0  0  0  0
    6.0586   -0.1125    0.2901 H   0  0  0  0  0  0  0  0  0  0  0  0
    5.3020    1.1384    2.2910 H   0  0  0  0  0  0  0  0  0  0  0  0
    2.8874    1.5881    2.6529 H   0  0  0  0  0  0  0  0  0  0  0  0
    0.6174    1.2501   -0.9990 H   0  0  0  0  0  0  0  0  0  0  0  0
   -1.8016    0.7802    0.5839 H   0  0  0  0  0  0  0  0  0  0  0  0
   -1.6909    1.4048   -1.0882 H   0  0  0  0  0  0  0  0  0  0  0  0
   -1.4081    2.4991    0.3032 H   0  0  0  0  0  0  0  0  0  0  0  0
    1.9648   -0.5342   -0.9839 H   0  0  0  0  0  0  0  0  0  0  0  0
    4.4554    3.6564   -4.1200 H   0  0  0  0  0  0  0  0  0  0  0  0
    5.7868    3.6375   -5.2486 H   0  0  0  0  0  0  0  0  0  0  0  0
    2.2244    3.3406   -5.0628 H   0  0  0  0  0  0  0  0  0  0  0  0
    0.8057    3.0629   -7.0624 H   0  0  0  0  0  0  0  0  0  0  0  0
    1.8173    2.3684   -9.2243 H   0  0  0  0  0  0  0  0  0  0  0  0
    4.2551    1.9501   -9.3753 H   0  0  0  0  0  0  0  0  0  0  0  0
    5.6934    2.2386   -7.3941 H   0  0  0  0  0  0  0  0  0  0  0  0
    6.4958    1.7344   -2.3056 H   0  0  0  0  0  0  0  0  0  0  0  0
    6.6194    4.0919   -3.1230 H   0  0  0  0  0  0  0  0  0  0  0  0
    7.7502    3.5516   -4.3937 H   0  0  0  0  0  0  0  0  0  0  0  0
    8.0965    5.2734   -0.6427 H   0  0  0  0  0  0  0  0  0  0  0  0
    9.1671    7.5201   -0.6814 H   0  0  0  0  0  0  0  0  0  0  0  0
   10.7035    8.1307   -2.5306 H   0  0  0  0  0  0  0  0  0  0  0  0
   11.2109    6.4825   -4.3212 H   0  0  0  0  0  0  0  0  0  0  0  0
   10.1504    4.2388   -4.2825 H   0  0  0  0  0  0  0  0  0  0  0  0
 46  1  1  0
  1  2  1  0
  2 47  1  1
  2  3  1  0
  3 48  1  6
  3  4  1  0
  4 49  1  0
  3  5  1  0
  5 50  1  6
  5  6  1  0
  6 51  1  0
  6 52  1  0
  6  7  1  0
  7  8  1  0
  8  9  2  0
  9 53  1  0
  9 10  1  0
 10 54  1  0
 10 11  2  0
 11 55  1  0
 11 12  1  0
 12 56  1  0
  8 13  1  0
 12 13  2  0
 13 57  1  0
  5 14  1  0
 14 15  1  6
 15 58  1  0
 15 59  1  0
 15 16  1  0
 16 17  2  0
 17 60  1  0
 17 18  1  0
 18 61  1  0
 18 19  2  0
 19 62  1  0
 19 20  1  0
 20 21  1  0
 21 22  2  0
 21 23  1  0
 23 63  1  0
 23 24  1  0
 24 64  1  0
 24 65  1  0
 24 66  1  0
 16 25  1  0
 20 25  2  0
 25 67  1  0
 14 26  1  0
 26 27  2  0
 26 28  2  0
 26 29  1  0
 29 30  1  1
 30 68  1  0
 30 69  1  0
 30 31  1  0
 31 32  2  0
 32 70  1  0
 32 33  1  0
 33 71  1  0
 33 34  2  0
 34 72  1  0
 34 35  1  0
 35 73  1  0
 31 36  1  0
 35 36  2  0
 36 74  1  0
  2 37  1  0
 29 37  1  0
 37 75  1  1
 37 38  1  0
 38 76  1  0
 38 77  1  0
 38 39  1  0
 39 40  1  0
 40 41  2  0
 41 78  1  0
 41 42  1  0
 42 79  1  0
 42 43  2  0
 43 80  1  0
 43 44  1  0
 44 81  1  0
 40 45  1  0
 44 45  2  0
 45 82  1  0
M  END
>  <conformer_energy>  (2) 
-20.98

>  <ligand_smiles>  (2) 
CNC(=O)c1cccc(CN2[C@H](COc3ccccc3)[C@H](O)[C@@H](O)[C@@H](COc3ccccc3)N(Cc3ccccc3)S2(=O)=O)c1

>  <ligand_conf_name>  (2) 
MOL_0_isomer_0_chiral_N_isomer_1_conf_0

>  <ligand_molecule_name>  (2) 
MOL_0_isomer_0_chiral_N_isomer_1

$$$$
MOL_0_isomer_0_chiral_N_isomer_2_conf_0
     RDKit          3D

 82 86  0  0  0  0  0  0  0  0999 V2000
    2.2459   -1.8120   -6.2567 O   0  0  0  0  0  0  0  0  0  0  0  0
    3.2864   -0.9577   -5.7360 C   0  0  2  0  0  0  0  0  0  0  0  0
    3.4900   -1.3264   -4.2611 C   0  0  1  0  0  0  0  0  0  0  0  0
    3.7782   -2.7434   -4.2036 O   0  0  0  0  0  0  0  0  0  0  0  0
    4.5726   -0.5193   -3.5119 C   0  0  1  0  0  0  0  0  0  0  0  0
    5.9821   -0.5628   -4.1392 C   0  0  0  0  0  0  0  0  0  0  0  0
    6.4138   -1.9367   -4.1947 O   0  0  0  0  0  0  0  0  0  0  0  0
    7.7351   -2.0721   -4.5316 C   0  0  0  0  0  0  0  0  0  0  0  0
    8.4865   -2.9506   -3.7474 C   0  0  0  0  0  0  0  0  0  0  0  0
    9.8364   -3.1660   -4.0384 C   0  0  0  0  0  0  0  0  0  0  0  0
   10.4337   -2.5165   -5.1231 C   0  0  0  0  0  0  0  0  0  0  0  0
    9.6753   -1.6530   -5.9194 C   0  0  0  0  0  0  0  0  0  0  0  0
    8.3258   -1.4333   -5.6286 C   0  0  0  0  0  0  0  0  0  0  0  0
    4.0301    0.8459   -3.2513 N   0  0  0  0  0  0  0  0  0  0  0  0
    4.0741    1.2365   -1.8158 C   0  0  0  0  0  0  0  0  0  0  0  0
    2.9695    0.5666   -1.0279 C   0  0  0  0  0  0  0  0  0  0  0  0
    3.2627   -0.4410   -0.0959 C   0  0  0  0  0  0  0  0  0  0  0  0
    2.2403   -1.0653    0.6162 C   0  0  0  0  0  0  0  0  0  0  0  0
    0.9151   -0.6892    0.4017 C   0  0  0  0  0  0  0  0  0  0  0  0
    0.5974    0.3019   -0.5361 C   0  0  0  0  0  0  0  0  0  0  0  0
   -0.8382    0.6550   -0.7134 C   0  0  0  0  0  0  0  0  0  0  0  0
   -1.6339    0.4472    0.1983 O   0  0  0  0  0  0  0  0  0  0  0  0
   -1.2094    1.1763   -1.9369 N   0  0  0  0  0  0  0  0  0  0  0  0
   -2.5778    1.5418   -2.1942 C   0  0  0  0  0  0  0  0  0  0  0  0
    1.6286    0.9344   -1.2425 C   0  0  0  0  0  0  0  0  0  0  0  0
    4.3745    2.1007   -4.2977 S   0  0  0  0  0  6  0  0  0  0  0  0
    5.7783    2.4040   -4.1597 O   0  0  0  0  0  0  0  0  0  0  0  0
    3.3850    3.1249   -4.0769 O   0  0  0  0  0  0  0  0  0  0  0  0
    4.1266    1.3978   -5.8022 N   0  0  0  0  0  0  0  0  0  0  0  0
    4.4160    2.3328   -6.9289 C   0  0  0  0  0  0  0  0  0  0  0  0
    5.8038    2.1266   -7.4891 C   0  0  0  0  0  0  0  0  0  0  0  0
    6.1022    0.9983   -8.2722 C   0  0  0  0  0  0  0  0  0  0  0  0
    7.3931    0.8080   -8.7732 C   0  0  0  0  0  0  0  0  0  0  0  0
    8.3973    1.7351   -8.4908 C   0  0  0  0  0  0  0  0  0  0  0  0
    8.1132    2.8570   -7.7083 C   0  0  0  0  0  0  0  0  0  0  0  0
    6.8239    3.0500   -7.2101 C   0  0  0  0  0  0  0  0  0  0  0  0
    2.9398    0.5128   -6.0644 C   0  0  2  0  0  0  0  0  0  0  0  0
    1.6054    1.0279   -5.4995 C   0  0  0  0  0  0  0  0  0  0  0  0
    1.3415    2.3012   -6.1188 O   0  0  0  0  0  0  0  0  0  0  0  0
    0.1485    2.8239   -5.7111 C   0  0  0  0  0  0  0  0  0  0  0  0
    0.1112    3.7220   -4.6479 C   0  0  0  0  0  0  0  0  0  0  0  0
   -1.0980    4.3161   -4.2912 C   0  0  0  0  0  0  0  0  0  0  0  0
   -2.2607    4.0157   -5.0033 C   0  0  0  0  0  0  0  0  0  0  0  0
   -2.2145    3.1214   -6.0735 C   0  0  0  0  0  0  0  0  0  0  0  0
   -1.0049    2.5317   -6.4340 C   0  0  0  0  0  0  0  0  0  0  0  0
    2.3886   -2.6884   -5.8333 H   0  0  0  0  0  0  0  0  0  0  0  0
    4.1861   -1.2387   -6.2991 H   0  0  0  0  0  0  0  0  0  0  0  0
    2.5334   -1.2221   -3.7321 H   0  0  0  0  0  0  0  0  0  0  0  0
    4.6727   -2.8748   -4.5660 H   0  0  0  0  0  0  0  0  0  0  0  0
    4.6845   -1.0447   -2.5549 H   0  0  0  0  0  0  0  0  0  0  0  0
    6.6775    0.0087   -3.5073 H   0  0  0  0  0  0  0  0  0  0  0  0
    5.9851   -0.1450   -5.1476 H   0  0  0  0  0  0  0  0  0  0  0  0
    8.0224   -3.4618   -2.9051 H   0  0  0  0  0  0  0  0  0  0  0  0
   10.4229   -3.8451   -3.4217 H   0  0  0  0  0  0  0  0  0  0  0  0
   11.4852   -2.6877   -5.3426 H   0  0  0  0  0  0  0  0  0  0  0  0
   10.1305   -1.1559   -6.7733 H   0  0  0  0  0  0  0  0  0  0  0  0
    7.7531   -0.7720   -6.2760 H   0  0  0  0  0  0  0  0  0  0  0  0
    5.0569    0.9955   -1.3898 H   0  0  0  0  0  0  0  0  0  0  0  0
    3.9582    2.3177   -1.6875 H   0  0  0  0  0  0  0  0  0  0  0  0
    4.2917   -0.7476    0.0812 H   0  0  0  0  0  0  0  0  0  0  0  0
    2.4750   -1.8395    1.3449 H   0  0  0  0  0  0  0  0  0  0  0  0
    0.1245   -1.1797    0.9664 H   0  0  0  0  0  0  0  0  0  0  0  0
   -0.5408    1.3016   -2.6821 H   0  0  0  0  0  0  0  0  0  0  0  0
   -3.2630    0.7975   -1.7770 H   0  0  0  0  0  0  0  0  0  0  0  0
   -2.7199    1.6008   -3.2768 H   0  0  0  0  0  0  0  0  0  0  0  0
   -2.7606    2.5139   -1.7349 H   0  0  0  0  0  0  0  0  0  0  0  0
    1.4096    1.7306   -1.9478 H   0  0  0  0  0  0  0  0  0  0  0  0
    3.7011    2.2194   -7.7527 H   0  0  0  0  0  0  0  0  0  0  0  0
    4.2846    3.3772   -6.6054 H   0  0  0  0  0  0  0  0  0  0  0  0
    5.3343    0.2633   -8.4965 H   0  0  0  0  0  0  0  0  0  0  0  0
    7.6148   -0.0691   -9.3800 H   0  0  0  0  0  0  0  0  0  0  0  0
    9.4058    1.5805   -8.8738 H   0  0  0  0  0  0  0  0  0  0  0  0
    8.8945    3.5837   -7.4828 H   0  0  0  0  0  0  0  0  0  0  0  0
    6.6151    3.9232   -6.5893 H   0  0  0  0  0  0  0  0  0  0  0  0
    2.7845    0.5039   -7.1543 H   0  0  0  0  0  0  0  0  0  0  0  0
    1.6256    1.1215   -4.4128 H   0  0  0  0  0  0  0  0  0  0  0  0
    0.8015    0.3285   -5.7645 H   0  0  0  0  0  0  0  0  0  0  0  0
    1.0186    3.9864   -4.1152 H   0  0  0  0  0  0  0  0  0  0  0  0
   -1.1307    5.0221   -3.4657 H   0  0  0  0  0  0  0  0  0  0  0  0
   -3.1987    4.4862   -4.7317 H   0  0  0  0  0  0  0  0  0  0  0  0
   -3.1164    2.8939   -6.6357 H   0  0  0  0  0  0  0  0  0  0  0  0
   -0.9599    1.8562   -7.2822 H   0  0  0  0  0  0  0  0  0  0  0  0
 46  1  1  0
  1  2  1  0
  2 47  1  6
  2  3  1  0
  3 48  1  1
  3  4  1  0
  4 49  1  0
  3  5  1  0
  5 50  1  1
  5  6  1  0
  6 51  1  0
  6 52  1  0
  6  7  1  0
  7  8  1  0
  8  9  2  0
  9 53  1  0
  9 10  1  0
 10 54  1  0
 10 11  2  0
 11 55  1  0
 11 12  1  0
 12 56  1  0
  8 13  1  0
 12 13  2  0
 13 57  1  0
  5 14  1  0
 14 15  1  1
 15 58  1  0
 15 59  1  0
 15 16  1  0
 16 17  2  0
 17 60  1  0
 17 18  1  0
 18 61  1  0
 18 19  2  0
 19 62  1  0
 19 20  1  0
 20 21  1  0
 21 22  2  0
 21 23  1  0
 23 63  1  0
 23 24  1  0
 24 64  1  0
 24 65  1  0
 24 66  1  0
 16 25  1  0
 20 25  2  0
 25 67  1  0
 14 26  1  0
 26 27  2  0
 26 28  2  0
 26 29  1  0
 29 30  1  6
 30 68  1  0
 30 69  1  0
 30 31  1  0
 31 32  2  0
 32 70  1  0
 32 33  1  0
 33 71  1  0
 33 34  2  0
 34 72  1  0
 34 35  1  0
 35 73  1  0
 31 36  1  0
 35 36  2  0
 36 74  1  0
  2 37  1  0
 29 37  1  0
 37 75  1  6
 37 38  1  0
 38 76  1  0
 38 77  1  0
 38 39  1  0
 39 40  1  0
 40 41  2  0
 41 78  1  0
 41 42  1  0
 42 79  1  0
 42 43  2  0
 43 80  1  0
 43 44  1  0
 44 81  1  0
 40 45  1  0
 44 45  2  0
 45 82  1  0
M  END
>  <conformer_energy>  (3) 
-42.11

>  <ligand_smiles>  (3) 
CNC(=O)c1cccc(CN2[C@H](COc3ccccc3)[C@H](O)[C@@H](O)[C@@H](COc3ccccc3)N(Cc3ccccc3)S2(=O)=O)c1

>  <ligand_conf_name>  (3) 
MOL_0_isomer_0_chiral_N_isomer_2_conf_0

>  <ligand_molecule_name>  (3) 
MOL_0_isomer_0_chiral_N_isomer_2

$$$$
MOL_0_isomer_0_chiral_N_isomer_3_conf_0
     RDKit          3D

 82 86  0  0  0  0  0  0  0  0999 V2000
    6.7430    3.9315    5.2137 O   0  0  0  0  0  0  0  0  0  0  0  0
    6.3357    3.6070    3.8670 C   0  0  2  0  0  0  0  0  0  0  0  0
    6.8353    4.7286    2.9504 C   0  0  1  0  0  0  0  0  0  0  0  0
    8.2528    4.8974    3.2042 O   0  0  0  0  0  0  0  0  0  0  0  0
    6.5417    4.5181    1.4479 C   0  0  1  0  0  0  0  0  0  0  0  0
    7.1358    3.2228    0.8530 C   0  0  0  0  0  0  0  0  0  0  0  0
    8.5612    3.2736    1.0286 O   0  0  0  0  0  0  0  0  0  0  0  0
    9.2748    2.2195    0.5320 C   0  0  0  0  0  0  0  0  0  0  0  0
   10.5937    2.5173    0.1638 C   0  0  0  0  0  0  0  0  0  0  0  0
   11.4301    1.5180   -0.3359 C   0  0  0  0  0  0  0  0  0  0  0  0
   10.9565    0.2083   -0.4548 C   0  0  0  0  0  0  0  0  0  0  0  0
    9.6452   -0.1008   -0.0743 C   0  0  0  0  0  0  0  0  0  0  0  0
    8.8053    0.9031    0.4202 C   0  0  0  0  0  0  0  0  0  0  0  0
    5.0834    4.7206    1.2223 N   0  0  0  0  0  0  0  0  0  0  0  0
    4.7833    5.7457    0.1867 C   0  0  0  0  0  0  0  0  0  0  0  0
    4.6729    7.1261    0.7949 C   0  0  0  0  0  0  0  0  0  0  0  0
    5.7578    8.0195    0.7914 C   0  0  0  0  0  0  0  0  0  0  0  0
    5.6440    9.2713    1.3974 C   0  0  0  0  0  0  0  0  0  0  0  0
    4.4508    9.6424    2.0190 C   0  0  0  0  0  0  0  0  0  0  0  0
    3.3679    8.7657    2.0291 C   0  0  0  0  0  0  0  0  0  0  0  0
    3.4759    7.5139    1.4237 C   0  0  0  0  0  0  0  0  0  0  0  0
    4.0269    3.4258    1.1976 S   0  0  0  0  0  6  0  0  0  0  0  0
    4.3913    2.6411    0.0383 O   0  0  0  0  0  0  0  0  0  0  0  0
    2.6937    3.9530    1.3515 O   0  0  0  0  0  0  0  0  0  0  0  0
    4.4416    2.5736    2.5856 N   0  0  0  0  0  0  0  0  0  0  0  0
    3.5403    1.4185    2.9203 C   0  0  0  0  0  0  0  0  0  0  0  0
    3.0862    0.5445    1.7705 C   0  0  0  0  0  0  0  0  0  0  0  0
    3.9277   -0.4388    1.2279 C   0  0  0  0  0  0  0  0  0  0  0  0
    3.5103   -1.2073    0.1345 C   0  0  0  0  0  0  0  0  0  0  0  0
    2.2553   -0.9914   -0.4380 C   0  0  0  0  0  0  0  0  0  0  0  0
    1.4176   -0.0016    0.0867 C   0  0  0  0  0  0  0  0  0  0  0  0
    0.0962    0.3014   -0.5150 C   0  0  0  0  0  0  0  0  0  0  0  0
   -0.8770    0.5176    0.2014 O   0  0  0  0  0  0  0  0  0  0  0  0
    0.0754    0.3615   -1.8922 N   0  0  0  0  0  0  0  0  0  0  0  0
   -1.1201    0.7340   -2.6068 C   0  0  0  0  0  0  0  0  0  0  0  0
    1.8177    0.7429    1.2024 C   0  0  0  0  0  0  0  0  0  0  0  0
    4.8167    3.3240    3.8544 C   0  0  2  0  0  0  0  0  0  0  0  0
    3.9422    4.5418    4.2162 C   0  0  0  0  0  0  0  0  0  0  0  0
    2.6012    4.0924    4.4872 O   0  0  0  0  0  0  0  0  0  0  0  0
    1.7731    5.1570    4.7292 C   0  0  0  0  0  0  0  0  0  0  0  0
    0.7932    5.4489    3.7815 C   0  0  0  0  0  0  0  0  0  0  0  0
   -0.1011    6.4945    4.0064 C   0  0  0  0  0  0  0  0  0  0  0  0
   -0.0218    7.2299    5.1921 C   0  0  0  0  0  0  0  0  0  0  0  0
    0.9476    6.9199    6.1504 C   0  0  0  0  0  0  0  0  0  0  0  0
    1.8402    5.8727    5.9236 C   0  0  0  0  0  0  0  0  0  0  0  0
    7.6618    4.2670    5.1174 H   0  0  0  0  0  0  0  0  0  0  0  0
    6.8748    2.6798    3.6360 H   0  0  0  0  0  0  0  0  0  0  0  0
    6.3896    5.6781    3.2808 H   0  0  0  0  0  0  0  0  0  0  0  0
    8.7528    4.3241    2.5857 H   0  0  0  0  0  0  0  0  0  0  0  0
    7.0928    5.3277    0.9490 H   0  0  0  0  0  0  0  0  0  0  0  0
    6.9193    3.1774   -0.2211 H   0  0  0  0  0  0  0  0  0  0  0  0
    6.7199    2.3417    1.3452 H   0  0  0  0  0  0  0  0  0  0  0  0
   10.9600    3.5385    0.2553 H   0  0  0  0  0  0  0  0  0  0  0  0
   12.4487    1.7595   -0.6308 H   0  0  0  0  0  0  0  0  0  0  0  0
   11.6127   -0.5717   -0.8341 H   0  0  0  0  0  0  0  0  0  0  0  0
    9.2807   -1.1263   -0.1465 H   0  0  0  0  0  0  0  0  0  0  0  0
    7.7998    0.6208    0.7300 H   0  0  0  0  0  0  0  0  0  0  0  0
    5.5491    5.7315   -0.6027 H   0  0  0  0  0  0  0  0  0  0  0  0
    3.8455    5.5306   -0.3456 H   0  0  0  0  0  0  0  0  0  0  0  0
    6.7023    7.7480    0.3220 H   0  0  0  0  0  0  0  0  0  0  0  0
    6.4860    9.9573    1.3999 H   0  0  0  0  0  0  0  0  0  0  0  0
    4.3721   10.6182    2.4965 H   0  0  0  0  0  0  0  0  0  0  0  0
    2.4384    9.0505    2.5188 H   0  0  0  0  0  0  0  0  0  0  0  0
    2.6263    6.8314    1.4532 H   0  0  0  0  0  0  0  0  0  0  0  0
    4.0975    0.7628    3.6037 H   0  0  0  0  0  0  0  0  0  0  0  0
    2.6684    1.7683    3.4881 H   0  0  0  0  0  0  0  0  0  0  0  0
    4.9206   -0.6021    1.6433 H   0  0  0  0  0  0  0  0  0  0  0  0
    4.1677   -1.9703   -0.2706 H   0  0  0  0  0  0  0  0  0  0  0  0
    1.9387   -1.6054   -1.2768 H   0  0  0  0  0  0  0  0  0  0  0  0
    0.9429    0.2856   -2.4050 H   0  0  0  0  0  0  0  0  0  0  0  0
   -1.9850    0.2085   -2.1993 H   0  0  0  0  0  0  0  0  0  0  0  0
   -0.9898    0.4881   -3.6663 H   0  0  0  0  0  0  0  0  0  0  0  0
   -1.2769    1.8100   -2.4941 H   0  0  0  0  0  0  0  0  0  0  0  0
    1.1497    1.5057    1.6017 H   0  0  0  0  0  0  0  0  0  0  0  0
    4.6613    2.6206    4.6902 H   0  0  0  0  0  0  0  0  0  0  0  0
    3.9431    5.2964    3.4257 H   0  0  0  0  0  0  0  0  0  0  0  0
    4.3398    5.0018    5.1298 H   0  0  0  0  0  0  0  0  0  0  0  0
    0.7225    4.8614    2.8630 H   0  0  0  0  0  0  0  0  0  0  0  0
   -0.8641    6.7298    3.2682 H   0  0  0  0  0  0  0  0  0  0  0  0
   -0.7212    8.0377    5.3785 H   0  0  0  0  0  0  0  0  0  0  0  0
    1.0042    7.4865    7.0791 H   0  0  0  0  0  0  0  0  0  0  0  0
    2.5733    5.6133    6.6847 H   0  0  0  0  0  0  0  0  0  0  0  0
 46  1  1  0
  1  2  1  0
  2 47  1  6
  2  3  1  0
  3 48  1  1
  3  4  1  0
  4 49  1  0
  3  5  1  0
  5 50  1  6
  5  6  1  0
  6 51  1  0
  6 52  1  0
  6  7  1  0
  7  8  1  0
  8  9  2  0
  9 53  1  0
  9 10  1  0
 10 54  1  0
 10 11  2  0
 11 55  1  0
 11 12  1  0
 12 56  1  0
  8 13  1  0
 12 13  2  0
 13 57  1  0
  5 14  1  0
 14 15  1  6
 15 58  1  0
 15 59  1  0
 15 16  1  0
 16 17  2  0
 17 60  1  0
 17 18  1  0
 18 61  1  0
 18 19  2  0
 19 62  1  0
 19 20  1  0
 20 63  1  0
 16 21  1  0
 20 21  2  0
 21 64  1  0
 14 22  1  0
 22 23  2  0
 22 24  2  0
 22 25  1  0
 25 26  1  6
 26 65  1  0
 26 66  1  0
 26 27  1  0
 27 28  2  0
 28 67  1  0
 28 29  1  0
 29 68  1  0
 29 30  2  0
 30 69  1  0
 30 31  1  0
 31 32  1  0
 32 33  2  0
 32 34  1  0
 34 70  1  0
 34 35  1  0
 35 71  1  0
 35 72  1  0
 35 73  1  0
 27 36  1  0
 31 36  2  0
 36 74  1  0
  2 37  1  0
 25 37  1  0
 37 75  1  1
 37 38  1  0
 38 76  1  0
 38 77  1  0
 38 39  1  0
 39 40  1  0
 40 41  2  0
 41 78  1  0
 41 42  1  0
 42 79  1  0
 42 43  2  0
 43 80  1  0
 43 44  1  0
 44 81  1  0
 40 45  1  0
 44 45  2  0
 45 82  1  0
M  END
>  <conformer_energy>  (4) 
-36.75

>  <ligand_smiles>  (4) 
CNC(=O)c1cccc(CN2[C@H](COc3ccccc3)[C@H](O)[C@@H](O)[C@@H](COc3ccccc3)N(Cc3ccccc3)S2(=O)=O)c1

>  <ligand_conf_name>  (4) 
MOL_0_isomer_0_chiral_N_isomer_3_conf_0

>  <ligand_molecule_name>  (4) 
MOL_0_isomer_0_chiral_N_isomer_3

$$$$
