MOL_0_isomer_0_conf_0
     RDKit          3D

 46 49  0  0  0  0  0  0  0  0999 V2000
    2.5558   -2.1676    5.2219 C   0  0  0  0  0  0  0  0  0  0  0  0
    1.7649   -3.2039    5.5405 N   0  0  0  0  0  0  0  0  0  0  0  0
    0.8841   -3.6031    4.6089 C   0  0  0  0  0  0  0  0  0  0  0  0
    0.0672   -4.6622    4.9890 N   0  0  0  0  0  0  0  0  0  0  0  0
   -0.9878   -5.3502    4.3767 C   0  0  0  0  0  0  0  0  0  0  0  0
   -1.4907   -5.0473    3.1089 C   0  0  0  0  0  0  0  0  0  0  0  0
   -2.5529   -5.7771    2.5547 C   0  0  0  0  0  0  0  0  0  0  0  0
   -3.1467   -6.8383    3.2511 C   0  0  0  0  0  0  0  0  0  0  0  0
   -4.2973   -7.6252    2.6532 C   0  0  0  0  0  0  0  0  0  0  0  0
   -4.7010   -7.2788    1.4979 O   0  0  0  0  0  0  0  0  0  0  0  0
   -4.7751   -8.5743    3.3529 O   0  0  0  0  0  1  0  0  0  0  0  0
   -2.6420   -7.1479    4.5200 C   0  0  0  0  0  0  0  0  0  0  0  0
   -1.5818   -6.4170    5.0705 C   0  0  0  0  0  0  0  0  0  0  0  0
    0.7908   -3.0278    3.4025 N   0  0  0  0  0  0  0  0  0  0  0  0
    1.6105   -2.0086    3.0970 C   0  0  0  0  0  0  0  0  0  0  0  0
    1.4278   -1.4717    1.8260 N   0  0  0  0  0  0  0  0  0  0  0  0
    2.1387   -0.5899    0.9920 C   0  0  0  0  0  0  0  0  0  0  0  0
    3.5271   -0.4189    1.1045 C   0  0  0  0  0  0  0  0  0  0  0  0
    4.2186    0.4826    0.2913 C   0  0  0  0  0  0  0  0  0  0  0  0
    3.5321    1.2362   -0.6523 C   0  0  0  0  0  0  0  0  0  0  0  0
    2.1538    1.0823   -0.7874 C   0  0  0  0  0  0  0  0  0  0  0  0
    1.4392    0.1785    0.0232 C   0  0  0  0  0  0  0  0  0  0  0  0
   -0.0179    0.0579   -0.1645 C   0  0  0  0  0  0  0  0  0  0  0  0
   -0.9129    0.5248    0.8113 C   0  0  0  0  0  0  0  0  0  0  0  0
   -2.2916    0.3759    0.6473 C   0  0  0  0  0  0  0  0  0  0  0  0
   -2.7949   -0.2383   -0.4971 C   0  0  0  0  0  0  0  0  0  0  0  0
   -1.9219   -0.7008   -1.4792 C   0  0  0  0  0  0  0  0  0  0  0  0
   -0.5429   -0.5523   -1.3148 C   0  0  0  0  0  0  0  0  0  0  0  0
    2.5168   -1.5264    4.0096 C   0  0  0  0  0  0  0  0  0  0  0  0
    3.2403   -1.8499    6.0021 H   0  0  0  0  0  0  0  0  0  0  0  0
    0.3100   -4.9551    5.9221 H   0  0  0  0  0  0  0  0  0  0  0  0
   -1.0786   -4.2371    2.5182 H   0  0  0  0  0  0  0  0  0  0  0  0
   -2.9277   -5.5178    1.5656 H   0  0  0  0  0  0  0  0  0  0  0  0
   -3.0859   -7.9694    5.0800 H   0  0  0  0  0  0  0  0  0  0  0  0
   -1.2279   -6.6983    6.0579 H   0  0  0  0  0  0  0  0  0  0  0  0
    0.6080   -1.8957    1.3975 H   0  0  0  0  0  0  0  0  0  0  0  0
    4.1024   -1.0277    1.7953 H   0  0  0  0  0  0  0  0  0  0  0  0
    5.2961    0.5836    0.3900 H   0  0  0  0  0  0  0  0  0  0  0  0
    4.0662    1.9370   -1.2879 H   0  0  0  0  0  0  0  0  0  0  0  0
    1.6243    1.6770   -1.5295 H   0  0  0  0  0  0  0  0  0  0  0  0
   -0.5343    0.9915    1.7183 H   0  0  0  0  0  0  0  0  0  0  0  0
   -2.9713    0.7236    1.4208 H   0  0  0  0  0  0  0  0  0  0  0  0
   -3.8673   -0.3714   -0.6162 H   0  0  0  0  0  0  0  0  0  0  0  0
   -2.3141   -1.1940   -2.3649 H   0  0  0  0  0  0  0  0  0  0  0  0
    0.1255   -0.9383   -2.0815 H   0  0  0  0  0  0  0  0  0  0  0  0
    3.1453   -0.6709    3.8186 H   0  0  0  0  0  0  0  0  0  0  0  0
 30  1  1  0
  1  2  2  0
  2  3  1  0
  3  4  1  0
  4 31  1  0
  4  5  1  0
  5  6  2  0
  6 32  1  0
  6  7  1  0
  7 33  1  0
  7  8  2  0
  8  9  1  0
  9 10  2  0
  9 11  1  0
  8 12  1  0
 12 34  1  0
  5 13  1  0
 12 13  2  0
 13 35  1  0
  3 14  2  0
 14 15  1  0
 15 16  1  0
 16 36  1  0
 16 17  1  0
 17 18  2  0
 18 37  1  0
 18 19  1  0
 19 38  1  0
 19 20  2  0
 20 39  1  0
 20 21  1  0
 21 40  1  0
 17 22  1  0
 21 22  2  0
 22 23  1  0
 23 24  2  0
 24 41  1  0
 24 25  1  0
 25 42  1  0
 25 26  2  0
 26 43  1  0
 26 27  1  0
 27 44  1  0
 23 28  1  0
 27 28  2  0
 28 45  1  0
  1 29  1  0
 15 29  2  0
 29 46  1  0
M  CHG  1  11  -1
M  END
>  <conformer_energy>  (1) 
-9.58

>  <ligand_smiles>  (1) 
O=C([O-])c1ccc(Nc2nccc(Nc3ccccc3-c3ccccc3)n2)cc1

>  <ligand_conf_name>  (1) 
MOL_0_isomer_0_conf_0

>  <ligand_molecule_name>  (1) 
MOL_0_isomer_0

$$$$
