MOL_0_isomer_0_conf_0
     RDKit          3D

 49 51  0  0  0  0  0  0  0  0999 V2000
    7.8723    4.0539    5.3942 O   0  0  0  0  0  0  0  0  0  0  0  0
    7.5252    3.1482    6.3739 C   0  0  0  0  0  0  0  0  0  0  0  0
    8.3695    3.0178    7.4683 C   0  0  0  0  0  0  0  0  0  0  0  0
    8.0181    2.1049    8.4535 C   0  0  0  0  0  0  0  0  0  0  0  0
    8.8826    1.9365    9.6234 N   0  0  0  0  0  4  0  0  0  0  0  0
    8.5043    1.1722   10.5243 O   0  0  0  0  0  0  0  0  0  0  0  0
    9.9509    2.5675    9.6556 O   0  0  0  0  0  1  0  0  0  0  0  0
    6.8489    1.3479    8.3378 C   0  0  0  0  0  0  0  0  0  0  0  0
    6.0070    1.5039    7.2145 C   0  0  0  0  0  0  0  0  0  0  0  0
    4.7768    0.6188    7.2092 C   0  0  0  0  0  0  0  0  0  0  0  0
    4.6389   -0.2909    8.0233 O   0  0  0  0  0  0  0  0  0  0  0  0
    3.8544    0.9021    6.2406 N   0  0  0  0  0  0  0  0  0  0  0  0
    2.7227    0.0923    5.9056 C   0  0  0  0  0  0  0  0  0  0  0  0
    2.9909   -0.3932    4.5155 C   0  0  0  0  0  0  0  0  0  0  0  0
    2.4723    0.1646    3.4089 C   0  0  0  0  0  0  0  0  0  0  0  0
    2.9427   -0.1750    2.0274 C   0  0  1  0  0  0  0  0  0  0  0  0
    1.7949   -0.5302    1.2398 O   0  0  0  0  0  0  0  0  0  0  0  0
    1.7014    0.3902    0.1390 C   0  0  1  0  0  0  0  0  0  0  0  0
    0.2922    0.7458   -0.1612 N   0  0  0  0  0  0  0  0  0  0  0  0
   -0.7392    0.5530    0.7533 C   0  0  0  0  0  0  0  0  0  0  0  0
   -2.0201    0.8731    0.5295 C   0  0  0  0  0  0  0  0  0  0  0  0
   -2.3692    1.4773   -0.7774 C   0  0  0  0  0  0  0  0  0  0  0  0
   -3.5259    1.7782   -1.0520 O   0  0  0  0  0  0  0  0  0  0  0  0
   -1.2670    1.7047   -1.7410 C   0  0  0  0  0  0  0  0  0  0  0  0
   -0.0321    1.3336   -1.3813 C   0  0  0  0  0  0  0  0  0  0  0  0
    2.5314    1.6270    0.5133 C   0  0  2  0  0  0  0  0  0  0  0  0
    3.0632    2.3258   -0.6197 O   0  0  0  0  0  0  0  0  0  0  0  0
    3.6389    1.0107    1.3468 C   0  0  2  0  0  0  0  0  0  0  0  0
    4.6798    0.5599    0.4541 O   0  0  0  0  0  0  0  0  0  0  0  0
    6.3227    2.4268    6.1655 C   0  0  0  0  0  0  0  0  0  0  0  0
    5.6331    2.6366    5.0994 O   0  0  0  0  0  1  0  0  0  0  0  0
    7.1027    3.9215    4.7870 H   0  0  0  0  0  0  0  0  0  0  0  0
    9.2670    3.6240    7.5224 H   0  0  0  0  0  0  0  0  0  0  0  0
    6.5737    0.6323    9.1099 H   0  0  0  0  0  0  0  0  0  0  0  0
    4.1398    1.6659    5.6120 H   0  0  0  0  0  0  0  0  0  0  0  0
    1.8301    0.7233    5.9553 H   0  0  0  0  0  0  0  0  0  0  0  0
    2.6068   -0.7482    6.5956 H   0  0  0  0  0  0  0  0  0  0  0  0
    3.7446   -1.1738    4.4364 H   0  0  0  0  0  0  0  0  0  0  0  0
    1.7551    0.9760    3.5074 H   0  0  0  0  0  0  0  0  0  0  0  0
    3.6028   -1.0502    2.0457 H   0  0  0  0  0  0  0  0  0  0  0  0
    2.1316   -0.1123   -0.7376 H   0  0  0  0  0  0  0  0  0  0  0  0
   -0.4441    0.1044    1.6979 H   0  0  0  0  0  0  0  0  0  0  0  0
   -2.8117    0.7135    1.2464 H   0  0  0  0  0  0  0  0  0  0  0  0
   -1.5041    2.1641   -2.6888 H   0  0  0  0  0  0  0  0  0  0  0  0
    0.8115    1.4903   -2.0495 H   0  0  0  0  0  0  0  0  0  0  0  0
    1.9393    2.3269    1.1142 H   0  0  0  0  0  0  0  0  0  0  0  0
    3.9381    1.9116   -0.7783 H   0  0  0  0  0  0  0  0  0  0  0  0
    4.0959    1.7305    2.0338 H   0  0  0  0  0  0  0  0  0  0  0  0
    5.4430    0.3518    1.0297 H   0  0  0  0  0  0  0  0  0  0  0  0
 32  1  1  0
  1  2  1  0
  2  3  2  0
  3 33  1  0
  3  4  1  0
  4  5  1  0
  5  6  2  0
  5  7  1  0
  4  8  2  0
  8 34  1  0
  8  9  1  0
  9 10  1  0
 10 11  2  0
 10 12  1  0
 12 35  1  0
 12 13  1  0
 13 36  1  0
 13 37  1  0
 13 14  1  0
 14 38  1  0
 14 15  2  0
 15 39  1  0
 15 16  1  0
 16 40  1  1
 16 17  1  0
 17 18  1  0
 18 41  1  6
 18 19  1  0
 19 20  1  0
 20 42  1  0
 20 21  2  0
 21 43  1  0
 21 22  1  0
 22 23  2  0
 22 24  1  0
 24 44  1  0
 19 25  1  0
 24 25  2  0
 25 45  1  0
 18 26  1  0
 26 46  1  1
 26 27  1  0
 27 47  1  0
 16 28  1  0
 26 28  1  0
 28 48  1  1
 28 29  1  0
 29 49  1  0
  2 30  1  0
  9 30  2  0
 30 31  1  0
M  CHG  3   5   1   7  -1  31  -1
M  END
>  <conformer_energy>  (1) 
58.38

>  <ligand_smiles>  (1) 
O=C(NC/C=C/[C@H]1O[C@@H](n2ccc(=O)cc2)[C@H](O)[C@@H]1O)c1cc([N+](=O)[O-])cc(O)c1[O-]

>  <ligand_conf_name>  (1) 
MOL_0_isomer_0_conf_0

>  <ligand_molecule_name>  (1) 
MOL_0_isomer_0

$$$$
