MOL_0_isomer_0_conf_0
     RDKit          3D

 34 36  0  0  0  0  0  0  0  0999 V2000
    3.6946   -0.8985   -0.0483 O   0  0  0  0  0  0  0  0  0  0  0  0
    2.3747   -0.7917    0.5204 C   0  0  1  0  0  0  0  0  0  0  0  0
    2.5421   -0.4308    1.9895 C   0  0  1  0  0  0  0  0  0  0  0  0
    3.6280   -1.1443    2.5695 O   0  0  0  0  0  0  0  0  0  0  0  0
    2.7430    1.0811    1.8905 C   0  0  2  0  0  0  0  0  0  0  0  0
    2.4676    1.7895    3.1220 N   0  0  0  0  0  0  0  0  0  0  0  0
    1.2702    2.3115    3.5326 C   0  0  0  0  0  0  0  0  0  0  0  0
    1.3532    2.8657    4.7247 N   0  0  0  0  0  0  0  0  0  0  0  0
    2.6778    2.7177    5.0875 C   0  0  0  0  0  0  0  0  0  0  0  0
    3.3984    3.1040    6.2304 C   0  0  0  0  0  0  0  0  0  0  0  0
    2.8250    3.7659    7.2921 N   0  0  0  0  0  0  0  0  0  0  0  0
    4.7182    2.8132    6.2911 N   0  0  0  0  0  0  0  0  0  0  0  0
    5.2797    2.1662    5.2461 C   0  0  0  0  0  0  0  0  0  0  0  0
    4.6967    1.7537    4.1026 N   0  0  0  0  0  0  0  0  0  0  0  0
    3.3889    2.0590    4.0974 C   0  0  0  0  0  0  0  0  0  0  0  0
    1.8188    1.5173    0.8654 O   0  0  0  0  0  0  0  0  0  0  0  0
    1.6457    0.4237   -0.0623 C   0  0  2  0  0  0  0  0  0  0  0  0
    0.1533    0.2157   -0.3383 C   0  0  0  0  0  0  0  0  0  0  0  0
   -0.6773   -0.2192    0.8601 C   0  0  0  0  0  0  0  0  0  0  0  0
    3.5911   -1.1723   -0.9785 H   0  0  0  0  0  0  0  0  0  0  0  0
    1.8756   -1.7515    0.3610 H   0  0  0  0  0  0  0  0  0  0  0  0
    1.6322   -0.6678    2.5514 H   0  0  0  0  0  0  0  0  0  0  0  0
    4.3274   -1.1681    1.8837 H   0  0  0  0  0  0  0  0  0  0  0  0
    3.7585    1.3470    1.5719 H   0  0  0  0  0  0  0  0  0  0  0  0
    0.3743    2.2648    2.9274 H   0  0  0  0  0  0  0  0  0  0  0  0
    3.4090    4.0069    8.0758 H   0  0  0  0  0  0  0  0  0  0  0  0
    1.8408    3.9880    7.2567 H   0  0  0  0  0  0  0  0  0  0  0  0
    6.3404    1.9520    5.3409 H   0  0  0  0  0  0  0  0  0  0  0  0
    2.1210    0.7354   -1.0003 H   0  0  0  0  0  0  0  0  0  0  0  0
    0.0358   -0.5275   -1.1357 H   0  0  0  0  0  0  0  0  0  0  0  0
   -0.2672    1.1584   -0.7097 H   0  0  0  0  0  0  0  0  0  0  0  0
   -1.7320   -0.2924    0.5752 H   0  0  0  0  0  0  0  0  0  0  0  0
   -0.6042    0.4987    1.6805 H   0  0  0  0  0  0  0  0  0  0  0  0
   -0.3676   -1.2019    1.2271 H   0  0  0  0  0  0  0  0  0  0  0  0
 20  1  1  0
  1  2  1  0
  2 21  1  1
  2  3  1  0
  3 22  1  1
  3  4  1  0
  4 23  1  0
  3  5  1  0
  5 24  1  6
  5  6  1  0
  6  7  1  0
  7 25  1  0
  7  8  2  0
  8  9  1  0
  9 10  1  0
 10 11  1  0
 11 26  1  0
 11 27  1  0
 10 12  2  0
 12 13  1  0
 13 28  1  0
 13 14  2  0
  9 15  2  0
  6 15  1  0
 14 15  1  0
  5 16  1  0
  2 17  1  0
 16 17  1  0
 17 29  1  6
 17 18  1  0
 18 30  1  0
 18 31  1  0
 18 19  1  0
 19 32  1  0
 19 33  1  0
 19 34  1  0
M  END
>  <conformer_energy>  (1) 
68.73

>  <ligand_smiles>  (1) 
CC[C@H]1O[C@@H](n2cnc3c(N)ncnc32)[C@H](O)[C@@H]1O

>  <ligand_conf_name>  (1) 
MOL_0_isomer_0_conf_0

>  <ligand_molecule_name>  (1) 
MOL_0_isomer_0

$$$$
