MOL_0_isomer_0_conf_0
     RDKit          3D

 45 47  0  0  0  0  0  0  0  0999 V2000
    1.2623    2.1790    0.7312 O   0  0  0  0  0  0  0  0  0  0  0  0
    1.9199    1.5600   -0.3862 C   0  0  1  0  0  0  0  0  0  0  0  0
    3.4346    1.8333   -0.2149 C   0  0  2  0  0  0  0  0  0  0  0  0
    3.6669    3.2396   -0.3226 O   0  0  0  0  0  0  0  0  0  0  0  0
    4.2538    1.0852   -1.2814 C   0  0  2  0  0  0  0  0  0  0  0  0
    3.8458   -0.3433   -1.2366 N   0  0  0  0  0  0  0  0  0  0  0  0
    4.7352   -1.1840   -0.7265 C   0  0  0  0  0  0  0  0  0  0  0  0
    4.5122   -2.4647   -0.5251 N   0  0  0  0  0  4  0  0  0  0  0  0
    5.4694   -3.4234    0.0451 C   0  0  0  0  0  0  0  0  0  0  0  0
    4.9821   -4.8048   -0.3101 C   0  0  0  0  0  0  0  0  0  0  0  0
    5.4494   -5.4452   -1.4689 C   0  0  0  0  0  0  0  0  0  0  0  0
    4.9656   -6.7055   -1.8239 C   0  0  0  0  0  0  0  0  0  0  0  0
    4.0060   -7.3340   -1.0318 C   0  0  0  0  0  0  0  0  0  0  0  0
    3.5270   -6.7032    0.1154 C   0  0  0  0  0  0  0  0  0  0  0  0
    4.0087   -5.4429    0.4756 C   0  0  0  0  0  0  0  0  0  0  0  0
    6.2270   -0.4099   -0.2949 S   0  0  0  0  0  0  0  0  0  0  0  0
    5.7669    1.1614   -1.0801 C   0  0  0  0  0  0  0  0  0  0  0  0
    2.4407   -0.6229   -1.5521 C   0  0  0  0  0  0  0  0  0  0  0  0
    1.5894    0.0501   -0.4505 C   0  0  2  0  0  0  0  0  0  0  0  0
    0.1590   -0.1972   -0.6271 N   0  0  0  0  0  0  0  0  0  0  0  0
   -0.3396   -1.4713   -0.4351 C   0  0  0  0  0  0  0  0  0  0  0  0
    0.3978   -2.4201   -0.1853 O   0  0  0  0  0  0  0  0  0  0  0  0
   -1.8251   -1.5998   -0.6219 C   0  0  0  0  0  0  0  0  0  0  0  0
    0.3670    1.8036    0.8213 H   0  0  0  0  0  0  0  0  0  0  0  0
    1.5482    2.0711   -1.2835 H   0  0  0  0  0  0  0  0  0  0  0  0
    3.7483    1.5314    0.7933 H   0  0  0  0  0  0  0  0  0  0  0  0
    3.0411    3.6676    0.3017 H   0  0  0  0  0  0  0  0  0  0  0  0
    4.0166    1.4939   -2.2734 H   0  0  0  0  0  0  0  0  0  0  0  0
    3.6118   -2.8536   -0.7749 H   0  0  0  0  0  0  0  0  0  0  0  0
    6.4730   -3.2596   -0.3693 H   0  0  0  0  0  0  0  0  0  0  0  0
    5.5094   -3.2906    1.1351 H   0  0  0  0  0  0  0  0  0  0  0  0
    6.2013   -4.9739   -2.1019 H   0  0  0  0  0  0  0  0  0  0  0  0
    5.3449   -7.2027   -2.7157 H   0  0  0  0  0  0  0  0  0  0  0  0
    3.6334   -8.3194   -1.3096 H   0  0  0  0  0  0  0  0  0  0  0  0
    2.7763   -7.1991    0.7309 H   0  0  0  0  0  0  0  0  0  0  0  0
    3.6151   -4.9710    1.3752 H   0  0  0  0  0  0  0  0  0  0  0  0
    6.2723    1.2020   -2.0521 H   0  0  0  0  0  0  0  0  0  0  0  0
    6.0899    2.0208   -0.4838 H   0  0  0  0  0  0  0  0  0  0  0  0
    2.2651   -1.6974   -1.6271 H   0  0  0  0  0  0  0  0  0  0  0  0
    2.2080   -0.1996   -2.5375 H   0  0  0  0  0  0  0  0  0  0  0  0
    1.8561   -0.3929    0.5204 H   0  0  0  0  0  0  0  0  0  0  0  0
   -0.4744    0.5420   -0.9168 H   0  0  0  0  0  0  0  0  0  0  0  0
   -2.0427   -1.7521   -1.6843 H   0  0  0  0  0  0  0  0  0  0  0  0
   -2.3375   -0.6981   -0.2763 H   0  0  0  0  0  0  0  0  0  0  0  0
   -2.1908   -2.4544   -0.0458 H   0  0  0  0  0  0  0  0  0  0  0  0
 24  1  1  0
  1  2  1  0
  2 25  1  6
  2  3  1  0
  3 26  1  1
  3  4  1  0
  4 27  1  0
  3  5  1  0
  5 28  1  6
  5  6  1  0
  6  7  1  0
  7  8  2  0
  8 29  1  0
  8  9  1  0
  9 30  1  0
  9 31  1  0
  9 10  1  0
 10 11  2  0
 11 32  1  0
 11 12  1  0
 12 33  1  0
 12 13  2  0
 13 34  1  0
 13 14  1  0
 14 35  1  0
 10 15  1  0
 14 15  2  0
 15 36  1  0
  7 16  1  0
  5 17  1  0
 16 17  1  0
 17 37  1  0
 17 38  1  0
  6 18  1  0
 18 39  1  0
 18 40  1  0
  2 19  1  0
 18 19  1  0
 19 41  1  1
 19 20  1  0
 20 42  1  0
 20 21  1  0
 21 22  2  0
 21 23  1  0
 23 43  1  0
 23 44  1  0
 23 45  1  0
M  CHG  1   8   1
M  END
>  <conformer_energy>  (1) 
10.14

>  <ligand_smiles>  (1) 
CC(=O)N[C@H]1CN2/C(=[NH+]/Cc3ccccc3)SC[C@@H]2[C@@H](O)[C@@H]1O

>  <ligand_conf_name>  (1) 
MOL_0_isomer_0_conf_0

>  <ligand_molecule_name>  (1) 
MOL_0_isomer_0

$$$$
