MOL_0_isomer_0_conf_0
     RDKit          3D

 33 33  0  0  0  0  0  0  0  0999 V2000
   -0.3733   -6.0354    0.2303 O   0  0  0  0  0  0  0  0  0  0  0  0
    0.2202   -4.8025    0.2672 C   0  0  0  0  0  0  0  0  0  0  0  0
    0.6946   -4.2708   -0.9280 C   0  0  0  0  0  0  0  0  0  0  0  0
    1.3005   -3.0176   -0.9195 C   0  0  0  0  0  0  0  0  0  0  0  0
    1.4022   -2.3152    0.2865 C   0  0  0  0  0  0  0  0  0  0  0  0
    2.0530   -0.9934    0.3092 C   0  0  0  0  0  0  0  0  0  0  0  0
    3.2098   -0.9482    0.7190 O   0  0  0  0  0  0  0  0  0  0  0  0
    1.3267    0.1195   -0.1135 N   0  0  0  0  0  0  0  0  0  0  0  0
    1.9999    1.4176   -0.1023 C   0  0  0  0  0  0  0  0  0  0  0  0
    2.6692    1.7115   -1.4357 C   0  0  0  0  0  0  0  0  0  0  0  0
   -0.0762    0.0956   -0.5395 C   0  0  0  0  0  0  0  0  0  0  0  0
   -1.0217    0.3772    0.6183 C   0  0  0  0  0  0  0  0  0  0  0  0
    0.9454   -2.8624    1.4929 C   0  0  0  0  0  0  0  0  0  0  0  0
    0.3431   -4.1180    1.4854 C   0  0  0  0  0  0  0  0  0  0  0  0
   -0.1623   -4.7797    2.5749 O   0  0  0  0  0  0  0  0  0  0  0  0
    0.0209   -4.1526    3.8399 C   0  0  0  0  0  0  0  0  0  0  0  0
   -0.6099   -6.2308    1.1581 H   0  0  0  0  0  0  0  0  0  0  0  0
    0.5977   -4.8340   -1.8514 H   0  0  0  0  0  0  0  0  0  0  0  0
    1.6911   -2.5912   -1.8396 H   0  0  0  0  0  0  0  0  0  0  0  0
    2.7578    1.4325    0.6889 H   0  0  0  0  0  0  0  0  0  0  0  0
    1.2693    2.1977    0.1375 H   0  0  0  0  0  0  0  0  0  0  0  0
    3.1701    2.6838   -1.4037 H   0  0  0  0  0  0  0  0  0  0  0  0
    1.9374    1.7303   -2.2496 H   0  0  0  0  0  0  0  0  0  0  0  0
    3.4166    0.9485   -1.6771 H   0  0  0  0  0  0  0  0  0  0  0  0
   -0.3278   -0.8734   -0.9757 H   0  0  0  0  0  0  0  0  0  0  0  0
   -0.2129    0.8426   -1.3293 H   0  0  0  0  0  0  0  0  0  0  0  0
   -2.0603    0.3507    0.2745 H   0  0  0  0  0  0  0  0  0  0  0  0
   -0.8327    1.3635    1.0537 H   0  0  0  0  0  0  0  0  0  0  0  0
   -0.9063   -0.3647    1.4145 H   0  0  0  0  0  0  0  0  0  0  0  0
    1.0780   -2.2877    2.4031 H   0  0  0  0  0  0  0  0  0  0  0  0
   -0.4006   -4.8131    4.6037 H   0  0  0  0  0  0  0  0  0  0  0  0
   -0.5180   -3.2006    3.8882 H   0  0  0  0  0  0  0  0  0  0  0  0
    1.0842   -4.0186    4.0648 H   0  0  0  0  0  0  0  0  0  0  0  0
 17  1  1  0
  1  2  1  0
  2  3  2  0
  3 18  1  0
  3  4  1  0
  4 19  1  0
  4  5  2  0
  5  6  1  0
  6  7  2  0
  6  8  1  0
  8  9  1  0
  9 20  1  0
  9 21  1  0
  9 10  1  0
 10 22  1  0
 10 23  1  0
 10 24  1  0
  8 11  1  0
 11 25  1  0
 11 26  1  0
 11 12  1  0
 12 27  1  0
 12 28  1  0
 12 29  1  0
  5 13  1  0
 13 30  1  0
  2 14  1  0
 13 14  2  0
 14 15  1  0
 15 16  1  0
 16 31  1  0
 16 32  1  0
 16 33  1  0
M  END
>  <conformer_energy>  (1) 
17.23

>  <ligand_smiles>  (1) 
CCN(CC)C(=O)c1ccc(O)c(OC)c1

>  <ligand_conf_name>  (1) 
MOL_0_isomer_0_conf_0

>  <ligand_molecule_name>  (1) 
MOL_0_isomer_0

$$$$
