MOL_0_isomer_0_conf_0
     RDKit          3D

 86 91  0  0  0  0  0  0  0  0999 V2000
   -1.5562    3.3563    3.1432 O   0  0  0  0  0  0  0  0  0  0  0  0
   -1.1634    4.2803    2.1283 C   0  0  1  0  0  0  0  0  0  0  0  0
   -2.0166    4.1040    0.8851 C   0  0  1  0  0  0  0  0  0  0  0  0
   -3.3576    3.7396    1.2606 O   0  0  0  0  0  0  0  0  0  0  0  0
   -1.9968    5.4978    0.2477 C   0  0  2  0  0  0  0  0  0  0  0  0
   -1.1768    5.5702   -0.9442 N   0  0  0  0  0  0  0  0  0  0  0  0
    0.1881    5.6727   -1.0100 C   0  0  0  0  0  0  0  0  0  0  0  0
    0.6214    5.6943   -2.2564 N   0  0  0  0  0  0  0  0  0  0  0  0
   -0.5186    5.6242   -3.0248 C   0  0  0  0  0  0  0  0  0  0  0  0
   -0.7201    5.6364   -4.4157 C   0  0  0  0  0  0  0  0  0  0  0  0
    0.3152    5.7276   -5.3218 N   0  0  0  0  0  0  0  0  0  0  0  0
   -1.9865    5.5722   -4.8881 N   0  0  0  0  0  0  0  0  0  0  0  0
   -2.9950    5.4887   -3.9896 C   0  0  0  0  0  0  0  0  0  0  0  0
   -2.9254    5.4513   -2.6451 N   0  0  0  0  0  0  0  0  0  0  0  0
   -1.6499    5.5350   -2.2295 C   0  0  0  0  0  0  0  0  0  0  0  0
   -1.4949    6.4397    1.2254 O   0  0  0  0  0  0  0  0  0  0  0  0
   -1.4375    5.7403    2.4815 C   0  0  2  0  0  0  0  0  0  0  0  0
   -0.3827    6.3168    3.4152 C   0  0  0  0  0  0  0  0  0  0  0  0
   -0.2676    5.4371    4.5177 O   0  0  0  0  0  0  0  0  0  0  0  0
    1.0262    5.6492    5.5027 P   0  0  2  0  0  5  0  0  0  0  0  0
    0.8532    4.5660    6.5380 O   0  0  0  0  0  0  0  0  0  0  0  0
    1.0050    7.1144    5.8591 O   0  0  0  0  0  1  0  0  0  0  0  0
    2.1435    5.2790    4.4314 O   0  0  0  0  0  0  0  0  0  0  0  0
    3.7356    5.2288    4.4431 P   0  0  2  0  0  5  0  0  0  0  0  0
    4.2869    4.1455    5.3374 O   0  0  0  0  0  0  0  0  0  0  0  0
    4.3562    6.6032    4.3940 O   0  0  0  0  0  1  0  0  0  0  0  0
    3.9312    4.6475    2.9232 O   0  0  0  0  0  0  0  0  0  0  0  0
    3.3483    3.3791    2.6523 C   0  0  0  0  0  0  0  0  0  0  0  0
    3.8206    2.9870    1.2554 C   0  0  1  0  0  0  0  0  0  0  0  0
    5.2646    2.8862    1.2818 O   0  0  0  0  0  0  0  0  0  0  0  0
    3.2814    1.6390    0.7531 C   0  0  1  0  0  0  0  0  0  0  0  0
    3.8379    0.5615    1.5218 O   0  0  0  0  0  0  0  0  0  0  0  0
    1.7473    1.5465    0.7342 C   0  0  1  0  0  0  0  0  0  0  0  0
    1.2230    2.6692    0.0094 O   0  0  0  0  0  0  0  0  0  0  0  0
    1.3061    0.1782    0.1451 C   0  0  0  0  0  0  0  0  0  0  0  0
   -0.1705    0.0837    0.0501 N   0  0  0  0  0  0  0  0  0  0  0  0
   -0.8114    0.4623   -1.1791 C   0  0  0  0  0  0  0  0  0  0  0  0
   -0.1555    0.5314   -2.4197 C   0  0  0  0  0  0  0  0  0  0  0  0
   -0.8048    0.9825   -3.5857 C   0  0  0  0  0  0  0  0  0  0  0  0
   -0.0282    1.0603   -4.8739 C   0  0  0  0  0  0  0  0  0  0  0  0
   -2.1631    1.3361   -3.5324 C   0  0  0  0  0  0  0  0  0  0  0  0
   -2.8983    1.8070   -4.7549 C   0  0  0  0  0  0  0  0  0  0  0  0
   -2.8446    1.2404   -2.3125 C   0  0  0  0  0  0  0  0  0  0  0  0
   -2.1906    0.8126   -1.1530 C   0  0  0  0  0  0  0  0  0  0  0  0
   -2.9015    0.7077    0.0506 N   0  0  0  0  0  0  0  0  0  0  0  0
   -2.2749    0.2517    1.1890 C   0  0  0  0  0  0  0  0  0  0  0  0
   -0.9620   -0.0764    1.2206 C   0  0  0  0  0  0  0  0  0  0  0  0
   -0.4455   -0.5583    2.4007 N   0  0  0  0  0  0  0  0  0  0  0  0
   -1.1448   -0.7203    3.5572 C   0  0  0  0  0  0  0  0  0  0  0  0
   -0.6433   -1.2468    4.5454 O   0  0  0  0  0  0  0  0  0  0  0  0
   -2.4399   -0.3108    3.5420 N   0  0  0  0  0  0  0  0  0  0  0  0
   -3.0870    0.1502    2.4375 C   0  0  0  0  0  0  0  0  0  0  0  0
   -4.2814    0.4436    2.4476 O   0  0  0  0  0  0  0  0  0  0  0  0
   -1.0802    3.6528    3.9571 H   0  0  0  0  0  0  0  0  0  0  0  0
   -0.1049    4.1308    1.8872 H   0  0  0  0  0  0  0  0  0  0  0  0
   -1.6422    3.3154    0.2321 H   0  0  0  0  0  0  0  0  0  0  0  0
   -3.2425    3.2335    2.0953 H   0  0  0  0  0  0  0  0  0  0  0  0
   -3.0056    5.8285   -0.0233 H   0  0  0  0  0  0  0  0  0  0  0  0
    0.8120    5.7289   -0.1234 H   0  0  0  0  0  0  0  0  0  0  0  0
    0.0970    5.8238   -6.2986 H   0  0  0  0  0  0  0  0  0  0  0  0
    1.2494    5.8515   -4.9526 H   0  0  0  0  0  0  0  0  0  0  0  0
   -3.9941    5.4408   -4.4106 H   0  0  0  0  0  0  0  0  0  0  0  0
   -2.4175    5.8211    2.9731 H   0  0  0  0  0  0  0  0  0  0  0  0
   -0.6805    7.3135    3.7563 H   0  0  0  0  0  0  0  0  0  0  0  0
    0.5727    6.4209    2.8891 H   0  0  0  0  0  0  0  0  0  0  0  0
    3.6934    2.6518    3.3929 H   0  0  0  0  0  0  0  0  0  0  0  0
    2.2615    3.4673    2.6935 H   0  0  0  0  0  0  0  0  0  0  0  0
    3.5786    3.7836    0.5416 H   0  0  0  0  0  0  0  0  0  0  0  0
    5.5308    3.6531    1.8396 H   0  0  0  0  0  0  0  0  0  0  0  0
    3.6624    1.5053   -0.2698 H   0  0  0  0  0  0  0  0  0  0  0  0
    4.7417    0.8715    1.7515 H   0  0  0  0  0  0  0  0  0  0  0  0
    1.3570    1.6127    1.7567 H   0  0  0  0  0  0  0  0  0  0  0  0
    0.7529    2.3371   -0.7754 H   0  0  0  0  0  0  0  0  0  0  0  0
    1.8014    0.0113   -0.8130 H   0  0  0  0  0  0  0  0  0  0  0  0
    1.6781   -0.6385    0.7748 H   0  0  0  0  0  0  0  0  0  0  0  0
    0.8811    0.2334   -2.5201 H   0  0  0  0  0  0  0  0  0  0  0  0
    1.0401    0.8694   -4.7139 H   0  0  0  0  0  0  0  0  0  0  0  0
   -0.1113    2.0608   -5.3138 H   0  0  0  0  0  0  0  0  0  0  0  0
   -0.4011    0.3130   -5.5841 H   0  0  0  0  0  0  0  0  0  0  0  0
   -3.9412    2.0625   -4.5257 H   0  0  0  0  0  0  0  0  0  0  0  0
   -2.9068    1.0159   -5.5124 H   0  0  0  0  0  0  0  0  0  0  0  0
   -2.4217    2.7004   -5.1715 H   0  0  0  0  0  0  0  0  0  0  0  0
   -3.8942    1.5115   -2.2555 H   0  0  0  0  0  0  0  0  0  0  0  0
   -3.8407    1.0710    0.1556 H   0  0  0  0  0  0  0  0  0  0  0  0
    0.5238   -0.8352    2.4610 H   0  0  0  0  0  0  0  0  0  0  0  0
   -2.9537   -0.3733    4.4044 H   0  0  0  0  0  0  0  0  0  0  0  0
 54  1  1  0
  1  2  1  0
  2 55  1  6
  2  3  1  0
  3 56  1  6
  3  4  1  0
  4 57  1  0
  3  5  1  0
  5 58  1  6
  5  6  1  0
  6  7  1  0
  7 59  1  0
  7  8  2  0
  8  9  1  0
  9 10  1  0
 10 11  1  0
 11 60  1  0
 11 61  1  0
 10 12  2  0
 12 13  1  0
 13 62  1  0
 13 14  2  0
  9 15  2  0
  6 15  1  0
 14 15  1  0
  5 16  1  0
  2 17  1  0
 16 17  1  0
 17 63  1  1
 17 18  1  0
 18 64  1  0
 18 65  1  0
 18 19  1  0
 19 20  1  0
 20 21  2  0
 20 22  1  1
 20 23  1  0
 23 24  1  0
 24 25  2  0
 24 26  1  6
 24 27  1  0
 27 28  1  0
 28 66  1  0
 28 67  1  0
 28 29  1  0
 29 68  1  6
 29 30  1  0
 30 69  1  0
 29 31  1  0
 31 70  1  6
 31 32  1  0
 32 71  1  0
 31 33  1  0
 33 72  1  1
 33 34  1  0
 34 73  1  0
 33 35  1  0
 35 74  1  0
 35 75  1  0
 35 36  1  0
 36 37  1  0
 37 38  2  0
 38 76  1  0
 38 39  1  0
 39 40  1  0
 40 77  1  0
 40 78  1  0
 40 79  1  0
 39 41  2  0
 41 42  1  0
 42 80  1  0
 42 81  1  0
 42 82  1  0
 41 43  1  0
 43 83  1  0
 37 44  1  0
 43 44  2  0
 44 45  1  0
 45 84  1  0
 45 46  1  0
 36 47  1  0
 46 47  2  0
 47 48  1  0
 48 85  1  0
 48 49  1  0
 49 50  2  0
 49 51  1  0
 51 86  1  0
 46 52  1  0
 51 52  1  0
 52 53  2  0
M  CHG  2  22  -1  26  -1
M  END
>  <conformer_energy>  (1) 
-57.25

>  <ligand_smiles>  (1) 
Cc1cc2c(cc1C)N(C[C@H](O)[C@H](O)[C@H](O)CO[P@@](=O)([O-])O[P@@](=O)([O-])OC[C@H]1O[C@@H](n3cnc4c(N)ncnc43)[C@H](O)[C@@H]1O)c1[nH]c(=O)[nH]c(=O)c1N2

>  <ligand_conf_name>  (1) 
MOL_0_isomer_0_conf_0

>  <ligand_molecule_name>  (1) 
MOL_0_isomer_0

$$$$
