MOL_0_isomer_0_conf_0
     RDKit          3D

 37 39  0  0  0  0  0  0  0  0999 V2000
   -0.3205   -3.5839    3.4482 C   0  0  0  0  0  0  0  0  0  0  0  0
    1.0133   -3.2264    3.6244 C   0  0  0  0  0  0  0  0  0  0  0  0
    1.7854   -2.8377    2.5248 C   0  0  0  0  0  0  0  0  0  0  0  0
    1.2455   -2.7846    1.2293 C   0  0  0  0  0  0  0  0  0  0  0  0
    2.0581   -2.3989    0.0143 C   0  0  2  0  0  0  0  0  0  0  0  0
    3.2104   -1.4388    0.0997 C   0  0  0  0  0  0  0  0  0  0  0  0
    1.9451   -1.0120   -0.6478 C   0  0  1  0  0  0  0  0  0  0  0  0
    2.1013   -0.9652   -2.1270 C   0  0  0  0  0  0  0  0  0  0  0  0
    1.4953   -1.8383   -2.8262 O   0  0  0  0  0  0  0  0  0  0  0  0
    2.8450   -0.0481   -2.6020 O   0  0  0  0  0  1  0  0  0  0  0  0
    1.1758    0.1394   -0.0200 C   0  0  0  0  0  0  0  0  0  0  0  0
   -0.3322    0.0428   -0.1253 C   0  0  0  0  0  0  0  0  0  0  0  0
   -1.1200    0.0633    1.0356 C   0  0  0  0  0  0  0  0  0  0  0  0
   -2.5148    0.0042    0.9604 C   0  0  0  0  0  0  0  0  0  0  0  0
   -3.1540   -0.0776   -0.2801 C   0  0  0  0  0  0  0  0  0  0  0  0
   -4.6487   -0.1167   -0.3687 C   0  0  0  0  0  0  0  0  0  0  0  0
   -2.3753   -0.0689   -1.4416 C   0  0  0  0  0  0  0  0  0  0  0  0
   -0.9805   -0.0077   -1.3641 C   0  0  0  0  0  0  0  0  0  0  0  0
   -0.0973   -3.1697    1.0810 C   0  0  0  0  0  0  0  0  0  0  0  0
   -0.8768   -3.5581    2.1736 C   0  0  0  0  0  0  0  0  0  0  0  0
   -0.9235   -3.8840    4.2994 H   0  0  0  0  0  0  0  0  0  0  0  0
    1.4592   -3.2513    4.6141 H   0  0  0  0  0  0  0  0  0  0  0  0
    2.8288   -2.5756    2.6791 H   0  0  0  0  0  0  0  0  0  0  0  0
    2.2009   -3.2256   -0.6846 H   0  0  0  0  0  0  0  0  0  0  0  0
    3.4404   -0.9404    1.0318 H   0  0  0  0  0  0  0  0  0  0  0  0
    4.0923   -1.6511   -0.4981 H   0  0  0  0  0  0  0  0  0  0  0  0
    1.4511    0.2347    1.0386 H   0  0  0  0  0  0  0  0  0  0  0  0
    1.4879    1.0863   -0.4800 H   0  0  0  0  0  0  0  0  0  0  0  0
   -0.6438    0.1067    2.0121 H   0  0  0  0  0  0  0  0  0  0  0  0
   -3.0933    0.0136    1.8797 H   0  0  0  0  0  0  0  0  0  0  0  0
   -5.0793   -0.6133    0.5072 H   0  0  0  0  0  0  0  0  0  0  0  0
   -4.9736   -0.6776   -1.2513 H   0  0  0  0  0  0  0  0  0  0  0  0
   -5.0472    0.9007   -0.4296 H   0  0  0  0  0  0  0  0  0  0  0  0
   -2.8391   -0.1173   -2.4235 H   0  0  0  0  0  0  0  0  0  0  0  0
   -0.4023   -0.0086   -2.2873 H   0  0  0  0  0  0  0  0  0  0  0  0
   -0.5419   -3.1424    0.0856 H   0  0  0  0  0  0  0  0  0  0  0  0
   -1.9162   -3.8312    2.0180 H   0  0  0  0  0  0  0  0  0  0  0  0
 21  1  1  0
  1  2  2  0
  2 22  1  0
  2  3  1  0
  3 23  1  0
  3  4  2  0
  4  5  1  0
  5 24  1  6
  5  6  1  0
  6 25  1  0
  6 26  1  0
  5  7  1  0
  6  7  1  0
  7  8  1  0
  8  9  2  0
  8 10  1  0
  7 11  1  1
 11 27  1  0
 11 28  1  0
 11 12  1  0
 12 13  2  0
 13 29  1  0
 13 14  1  0
 14 30  1  0
 14 15  2  0
 15 16  1  0
 16 31  1  0
 16 32  1  0
 16 33  1  0
 15 17  1  0
 17 34  1  0
 12 18  1  0
 17 18  2  0
 18 35  1  0
  4 19  1  0
 19 36  1  0
  1 20  1  0
 19 20  2  0
 20 37  1  0
M  CHG  1  10  -1
M  END
>  <conformer_energy>  (1) 
51.22

>  <ligand_smiles>  (1) 
Cc1ccc(C[C@@]2(C(=O)[O-])C[C@H]2c2ccccc2)cc1

>  <ligand_conf_name>  (1) 
MOL_0_isomer_0_conf_0

>  <ligand_molecule_name>  (1) 
MOL_0_isomer_0

$$$$
