MOL_0_isomer_0_conf_0
     RDKit          3D

 70 75  0  0  0  0  0  0  0  0999 V2000
    4.9492    4.4073   -8.4177 O   0  0  0  0  0  0  0  0  0  0  0  0
    5.2515    5.0915   -7.2239 C   0  0  0  0  0  0  0  0  0  0  0  0
    6.2263    6.0522   -7.5389 O   0  0  0  0  0  0  0  0  0  0  0  0
    5.7261    4.1340   -6.1387 C   0  0  0  0  0  0  0  0  0  0  0  0
    4.4502    3.6436   -5.4297 C   0  0  1  0  0  0  0  0  0  0  0  0
    3.3197    4.5517   -5.8965 C   0  0  1  0  0  0  0  0  0  0  0  0
    3.9927    5.7113   -6.6306 C   0  0  0  0  0  0  0  0  0  0  0  0
    2.4568    3.6646   -6.7932 C   0  0  2  0  0  0  0  0  0  0  0  0
    1.0196    3.8534   -6.6783 N   0  0  0  0  0  0  0  0  0  0  0  0
    0.1631    4.0615   -7.7364 C   0  0  0  0  0  0  0  0  0  0  0  0
   -1.0861    4.2389   -7.3490 N   0  0  0  0  0  0  0  0  0  0  0  0
   -1.0303    4.1160   -5.9818 C   0  0  0  0  0  0  0  0  0  0  0  0
   -2.0711    4.1980   -4.9769 C   0  0  0  0  0  0  0  0  0  0  0  0
   -3.2637    4.3961   -5.1971 O   0  0  0  0  0  0  0  0  0  0  0  0
   -1.5809    4.0233   -3.6886 N   0  0  0  0  0  0  0  0  0  0  0  0
   -0.2538    3.7916   -3.3798 C   0  0  0  0  0  0  0  0  0  0  0  0
    0.0419    3.6300   -2.0757 N   0  0  0  0  0  0  0  0  0  0  0  0
    0.6829    3.7258   -4.2824 N   0  0  0  0  0  0  0  0  0  0  0  0
    0.2536    3.8848   -5.5501 C   0  0  0  0  0  0  0  0  0  0  0  0
    2.7768    2.2945   -6.5274 O   0  0  0  0  0  0  0  0  0  0  0  0
    4.0200    2.2249   -5.8025 C   0  0  2  0  0  0  0  0  0  0  0  0
    3.8551    1.2885   -4.5979 C   0  0  0  0  0  0  0  0  0  0  0  0
    2.9785    1.8547   -3.6437 O   0  0  0  0  0  0  0  0  0  0  0  0
    3.4548    1.9741   -2.1053 P   0  0  2  0  0  5  0  0  0  0  0  0
    2.3727    2.6915   -1.3332 O   0  0  0  0  0  0  0  0  0  0  0  0
    4.8953    2.4005   -2.0606 O   0  0  0  0  0  1  0  0  0  0  0  0
    3.3809    0.3999   -1.7009 O   0  0  0  0  0  0  0  0  0  0  0  0
    2.0679   -0.1536   -1.6152 C   0  0  1  0  0  0  0  0  0  0  0  0
    2.2059   -1.6612   -1.7026 C   0  0  1  0  0  0  0  0  0  0  0  0
    3.1587   -2.0617   -2.6826 O   0  0  0  0  0  0  0  0  0  0  0  0
    2.5974   -2.0086   -0.2586 C   0  0  2  0  0  0  0  0  0  0  0  0
    2.2983   -3.3981    0.0929 N   0  0  0  0  0  0  0  0  0  0  0  0
    1.0321   -3.7697    0.5063 C   0  0  0  0  0  0  0  0  0  0  0  0
    0.7201   -5.0362    0.7866 C   0  0  0  0  0  0  0  0  0  0  0  0
    1.7554   -6.0710    0.6386 C   0  0  0  0  0  0  0  0  0  0  0  0
    1.5127   -7.2483    0.8815 O   0  0  0  0  0  0  0  0  0  0  0  0
    2.9750   -5.6309    0.2182 N   0  0  0  0  0  0  0  0  0  0  0  0
    3.3144   -4.3321   -0.0684 C   0  0  0  0  0  0  0  0  0  0  0  0
    4.4605   -4.0736   -0.4264 O   0  0  0  0  0  0  0  0  0  0  0  0
    1.8453   -1.1150    0.5863 O   0  0  0  0  0  0  0  0  0  0  0  0
    1.4802    0.0451   -0.2189 C   0  0  2  0  0  0  0  0  0  0  0  0
   -0.0507    0.1075   -0.2450 C   0  0  0  0  0  0  0  0  0  0  0  0
   -0.5815    0.1318    1.0841 O   0  0  0  0  0  0  0  0  0  0  0  0
    5.7379    3.8757   -8.6182 H   0  0  0  0  0  0  0  0  0  0  0  0
    5.7501    6.8016   -7.9331 H   0  0  0  0  0  0  0  0  0  0  0  0
    6.3534    4.6731   -5.4184 H   0  0  0  0  0  0  0  0  0  0  0  0
    6.3335    3.3132   -6.5323 H   0  0  0  0  0  0  0  0  0  0  0  0
    4.6162    3.7438   -4.3533 H   0  0  0  0  0  0  0  0  0  0  0  0
    2.7638    4.9473   -5.0425 H   0  0  0  0  0  0  0  0  0  0  0  0
    4.2612    6.5008   -5.9177 H   0  0  0  0  0  0  0  0  0  0  0  0
    3.3385    6.1563   -7.3863 H   0  0  0  0  0  0  0  0  0  0  0  0
    2.6873    3.8289   -7.8502 H   0  0  0  0  0  0  0  0  0  0  0  0
    0.5070    4.0742   -8.7625 H   0  0  0  0  0  0  0  0  0  0  0  0
   -2.2564    4.0658   -2.9479 H   0  0  0  0  0  0  0  0  0  0  0  0
    1.0235    3.3764   -1.8295 H   0  0  0  0  0  0  0  0  0  0  0  0
   -0.5978    3.6674   -1.3041 H   0  0  0  0  0  0  0  0  0  0  0  0
    4.7416    1.7588   -6.4828 H   0  0  0  0  0  0  0  0  0  0  0  0
    4.8327    1.0675   -4.1590 H   0  0  0  0  0  0  0  0  0  0  0  0
    3.4103    0.3419   -4.9217 H   0  0  0  0  0  0  0  0  0  0  0  0
    1.4473    0.2485   -2.4218 H   0  0  0  0  0  0  0  0  0  0  0  0
    1.2406   -2.1130   -1.9599 H   0  0  0  0  0  0  0  0  0  0  0  0
    3.9013   -1.4272   -2.5940 H   0  0  0  0  0  0  0  0  0  0  0  0
    3.6639   -1.8144   -0.0883 H   0  0  0  0  0  0  0  0  0  0  0  0
    0.2875   -2.9847    0.6033 H   0  0  0  0  0  0  0  0  0  0  0  0
   -0.2623   -5.3471    1.1151 H   0  0  0  0  0  0  0  0  0  0  0  0
    3.7049   -6.3162    0.1034 H   0  0  0  0  0  0  0  0  0  0  0  0
    1.8843    0.9120    0.3111 H   0  0  0  0  0  0  0  0  0  0  0  0
   -0.4728   -0.7781   -0.7306 H   0  0  0  0  0  0  0  0  0  0  0  0
   -0.4030    0.9973   -0.7738 H   0  0  0  0  0  0  0  0  0  0  0  0
    0.1382   -0.1828    1.6670 H   0  0  0  0  0  0  0  0  0  0  0  0
 44  1  1  0
  1  2  1  0
  2  3  1  0
  3 45  1  0
  2  4  1  0
  4 46  1  0
  4 47  1  0
  4  5  1  0
  5 48  1  1
  5  6  1  0
  6 49  1  1
  2  7  1  0
  6  7  1  0
  7 50  1  0
  7 51  1  0
  6  8  1  0
  8 52  1  6
  8  9  1  0
  9 10  1  0
 10 53  1  0
 10 11  2  0
 11 12  1  0
 12 13  1  0
 13 14  2  0
 13 15  1  0
 15 54  1  0
 15 16  1  0
 16 17  1  0
 17 55  1  0
 17 56  1  0
 16 18  2  0
 12 19  2  0
  9 19  1  0
 18 19  1  0
  8 20  1  0
  5 21  1  0
 20 21  1  0
 21 57  1  6
 21 22  1  0
 22 58  1  0
 22 59  1  0
 22 23  1  0
 23 24  1  0
 24 25  2  0
 24 26  1  6
 24 27  1  0
 27 28  1  0
 28 60  1  6
 28 29  1  0
 29 61  1  6
 29 30  1  0
 30 62  1  0
 29 31  1  0
 31 63  1  6
 31 32  1  0
 32 33  1  0
 33 64  1  0
 33 34  2  0
 34 65  1  0
 34 35  1  0
 35 36  2  0
 35 37  1  0
 37 66  1  0
 32 38  1  0
 37 38  1  0
 38 39  2  0
 31 40  1  0
 28 41  1  0
 40 41  1  0
 41 67  1  1
 41 42  1  0
 42 68  1  0
 42 69  1  0
 42 43  1  0
 43 70  1  0
M  CHG  1  26  -1
M  END
>  <conformer_energy>  (1) 
-218.47

>  <ligand_smiles>  (1) 
Nc1nc2c(ncn2[C@@H]2O[C@H](CO[P@](=O)([O-])O[C@H]3[C@@H](O)[C@H](n4ccc(=O)[nH]c4=O)O[C@@H]3CO)[C@H]3CC(O)(O)C[C@H]32)c(=O)[nH]1

>  <ligand_conf_name>  (1) 
MOL_0_isomer_0_conf_0

>  <ligand_molecule_name>  (1) 
MOL_0_isomer_0

$$$$
