1SJ0 - prepared_ligand_conf_0
     RDKit          3D

 63 67  0  0  0  0  0  0  0  0999 V2000
    2.7960    0.3444   -8.9393 O   0  0  0  0  0  0  0  0  0  0  0  0
    2.6913   -0.9162   -8.4322 C   0  0  0  0  0  0  0  0  0  0  0  0
    3.8641   -1.6129   -8.1769 C   0  0  0  0  0  0  0  0  0  0  0  0
    3.8040   -2.9118   -7.6656 C   0  0  0  0  0  0  0  0  0  0  0  0
    2.5699   -3.5191   -7.3837 C   0  0  0  0  0  0  0  0  0  0  0  0
    2.4514   -4.9321   -6.8225 C   0  0  1  0  0  0  0  0  0  0  0  0
    2.7421   -6.1837   -8.1247 S   0  0  0  0  0  0  0  0  0  0  0  0
    4.4289   -6.6349   -7.7623 C   0  0  0  0  0  0  0  0  0  0  0  0
    5.0538   -7.5279   -8.6427 C   0  0  0  0  0  0  0  0  0  0  0  0
    6.3807   -7.8997   -8.4451 C   0  0  0  0  0  0  0  0  0  0  0  0
    6.9337   -8.7706   -9.3360 O   0  0  0  0  0  0  0  0  0  0  0  0
    7.1127   -7.3925   -7.3800 C   0  0  0  0  0  0  0  0  0  0  0  0
    6.4982   -6.5053   -6.4967 C   0  0  0  0  0  0  0  0  0  0  0  0
    5.1585   -6.1390   -6.6734 C   0  0  0  0  0  0  0  0  0  0  0  0
    4.6851   -5.2528   -5.7414 O   0  0  0  0  0  0  0  0  0  0  0  0
    3.2639   -5.2834   -5.5524 C   0  0  1  0  0  0  0  0  0  0  0  0
    2.8996   -4.3778   -4.3760 C   0  0  0  0  0  0  0  0  0  0  0  0
    3.6418   -3.2267   -4.0738 C   0  0  0  0  0  0  0  0  0  0  0  0
    3.2837   -2.3953   -3.0069 C   0  0  0  0  0  0  0  0  0  0  0  0
    2.1733   -2.7015   -2.2228 C   0  0  0  0  0  0  0  0  0  0  0  0
    1.7153   -1.9735   -1.1591 O   0  0  0  0  0  0  0  0  0  0  0  0
    2.4614   -0.8018   -0.8112 C   0  0  0  0  0  0  0  0  0  0  0  0
    1.7497   -0.1587    0.3843 C   0  0  0  0  0  0  0  0  0  0  0  0
    0.2468   -0.0816    0.1274 N   0  0  0  0  0  0  0  0  0  0  0  0
   -0.5397    0.0066    1.4120 C   0  0  0  0  0  0  0  0  0  0  0  0
   -2.0278   -0.0902    1.1077 C   0  0  0  0  0  0  0  0  0  0  0  0
   -2.4688    0.9656    0.1007 C   0  0  0  0  0  0  0  0  0  0  0  0
   -1.6217    0.9036   -1.1651 C   0  0  0  0  0  0  0  0  0  0  0  0
   -0.1347    1.0002   -0.8538 C   0  0  0  0  0  0  0  0  0  0  0  0
    1.4274   -3.8454   -2.5152 C   0  0  0  0  0  0  0  0  0  0  0  0
    1.7835   -4.6761   -3.5815 C   0  0  0  0  0  0  0  0  0  0  0  0
    1.3962   -2.7910   -7.6604 C   0  0  0  0  0  0  0  0  0  0  0  0
    1.4543   -1.4956   -8.1824 C   0  0  0  0  0  0  0  0  0  0  0  0
    1.9224    0.6215   -9.2617 H   0  0  0  0  0  0  0  0  0  0  0  0
    4.8258   -1.1550   -8.3920 H   0  0  0  0  0  0  0  0  0  0  0  0
    4.7406   -3.4375   -7.5041 H   0  0  0  0  0  0  0  0  0  0  0  0
    1.3955   -5.0731   -6.5543 H   0  0  0  0  0  0  0  0  0  0  0  0
    4.5167   -7.9346   -9.4969 H   0  0  0  0  0  0  0  0  0  0  0  0
    7.8564   -8.9409   -9.0854 H   0  0  0  0  0  0  0  0  0  0  0  0
    8.1500   -7.6715   -7.2233 H   0  0  0  0  0  0  0  0  0  0  0  0
    7.0627   -6.1014   -5.6597 H   0  0  0  0  0  0  0  0  0  0  0  0
    3.0111   -6.3054   -5.2281 H   0  0  0  0  0  0  0  0  0  0  0  0
    4.5129   -2.9642   -4.6737 H   0  0  0  0  0  0  0  0  0  0  0  0
    3.9034   -1.5223   -2.8291 H   0  0  0  0  0  0  0  0  0  0  0  0
    2.4864   -0.1001   -1.6524 H   0  0  0  0  0  0  0  0  0  0  0  0
    3.4843   -1.0671   -0.5195 H   0  0  0  0  0  0  0  0  0  0  0  0
    2.1179    0.8469    0.6100 H   0  0  0  0  0  0  0  0  0  0  0  0
    1.8777   -0.8023    1.2616 H   0  0  0  0  0  0  0  0  0  0  0  0
    0.0205   -0.9900   -0.3142 H   0  0  0  0  0  0  0  0  0  0  0  0
   -0.2290   -0.8266    2.0510 H   0  0  0  0  0  0  0  0  0  0  0  0
   -0.2802    0.9557    1.8942 H   0  0  0  0  0  0  0  0  0  0  0  0
   -2.6001    0.0240    2.0352 H   0  0  0  0  0  0  0  0  0  0  0  0
   -2.2576   -1.0881    0.7133 H   0  0  0  0  0  0  0  0  0  0  0  0
   -3.5253    0.8202   -0.1515 H   0  0  0  0  0  0  0  0  0  0  0  0
   -2.3806    1.9614    0.5522 H   0  0  0  0  0  0  0  0  0  0  0  0
   -1.9084    1.7177   -1.8405 H   0  0  0  0  0  0  0  0  0  0  0  0
   -1.8259   -0.0360   -1.6941 H   0  0  0  0  0  0  0  0  0  0  0  0
    0.1264    1.9638   -0.4024 H   0  0  0  0  0  0  0  0  0  0  0  0
    0.4502    0.8541   -1.7660 H   0  0  0  0  0  0  0  0  0  0  0  0
    0.5627   -4.1056   -1.9099 H   0  0  0  0  0  0  0  0  0  0  0  0
    1.1844   -5.5631   -3.7822 H   0  0  0  0  0  0  0  0  0  0  0  0
    0.4187   -3.2343   -7.4797 H   0  0  0  0  0  0  0  0  0  0  0  0
    0.5315   -0.9617   -8.3872 H   0  0  0  0  0  0  0  0  0  0  0  0
 34  1  1  0
  1  2  1  0
  2  3  2  0
  3 35  1  0
  3  4  1  0
  4 36  1  0
  4  5  2  0
  5  6  1  0
  6 37  1  1
  6  7  1  0
  7  8  1  0
  8  9  2  0
  9 38  1  0
  9 10  1  0
 10 11  1  0
 11 39  1  0
 10 12  2  0
 12 40  1  0
 12 13  1  0
 13 41  1  0
  8 14  1  0
 13 14  2  0
 14 15  1  0
  6 16  1  0
 15 16  1  0
 16 42  1  1
 16 17  1  0
 17 18  2  0
 18 43  1  0
 18 19  1  0
 19 44  1  0
 19 20  2  0
 20 21  1  0
 21 22  1  0
 22 45  1  0
 22 46  1  0
 22 23  1  0
 23 47  1  0
 23 48  1  0
 23 24  1  0
 24 49  1  0
 24 25  1  0
 25 50  1  0
 25 51  1  0
 25 26  1  0
 26 52  1  0
 26 53  1  0
 26 27  1  0
 27 54  1  0
 27 55  1  0
 27 28  1  0
 28 56  1  0
 28 57  1  0
 24 29  1  0
 28 29  1  0
 29 58  1  0
 29 59  1  0
 20 30  1  0
 30 60  1  0
 17 31  1  0
 30 31  2  0
 31 61  1  0
  5 32  1  0
 32 62  1  0
  2 33  1  0
 32 33  2  0
 33 63  1  0
M  CHG  1  24   1
M  END
>  <conformer_energy>  (1) 
107.30

>  <ligand_smiles>  (1) 
Oc1ccc([C@H]2Sc3cc(O)ccc3O[C@H]2c2ccc(OCC[NH+]3CCCCC3)cc2)cc1

>  <ligand_conf_name>  (1) 
1SJ0 - prepared_ligand_conf_0

>  <ligand_molecule_name>  (1) 
1SJ0 - prepared_ligand

>  <fragInfo>  (1) 
6 7 8 9 10 11 12 13 14 15 16 37 38 39 40 41 42
1 2 3 4 5 32 33 34 35 36 62 63
17 18 19 20 30 31 43 44 60 61
21
22 45 46
23 47 48
24 25 26 27 28 29 49 50 51 52 53 54 55 56 57 58 59


>  <torsionInfo>  (1) 
5 6 1 0
16 17 0 2
20 21 2 3
21 22 3 4
22 23 4 5
23 24 5 6


>  <atomInfo>  (1) 
1  -0.507967 OA
2  0.115096  A 
3  -0.019911 A 
4  -0.054074 A 
5  -0.030257 A 
6  0.075790  C 
7  -0.109645 SA
8  0.053811  A 
9  -0.002811 A 
10 0.116469  A 
11 -0.507920 OA
12 -0.016464 A 
13 -0.015079 A 
14 0.133673  A 
15 -0.483018 OA
16 0.140005  C 
17 -0.005947 A 
18 -0.051601 A 
19 -0.019548 A 
20 0.119152  A 
21 -0.487725 OA
22 0.137005  C 
23 0.111708  C 
24 -0.332116 N 
25 0.077145  C 
26 -0.003303 C 
27 -0.042606 C 
28 -0.003303 C 
29 0.077145  C 
30 -0.019548 A 
31 -0.051601 A 
32 -0.054074 A 
33 -0.019911 A 
34 0.293092  HD
35 0.066192  H 
36 0.062742  H 
37 0.051365  H 
38 0.067520  H 
39 0.293093  HD
40 0.066321  H 
41 0.066372  H 
42 0.081160  H 
43 0.062839  H 
44 0.066202  H 
45 0.076679  H 
46 0.076679  H 
47 0.096071  H 
48 0.096071  H 
49 0.347718  HD
50 0.092344  H 
51 0.092344  H 
52 0.032446  H 
53 0.032446  H 
54 0.027090  H 
55 0.027090  H 
56 0.032446  H 
57 0.032446  H 
58 0.092344  H 
59 0.092344  H 
60 0.066202  H 
61 0.062839  H 
62 0.062742  H 
63 0.066192  H 


$$$$
