MOL_0_isomer_0_conf_0
     RDKit          3D

 78 81  0  0  0  0  0  0  0  0999 V2000
    7.2533    7.6285   -7.4149 C   0  0  0  0  0  0  0  0  0  0  0  0
    7.8687    7.3797   -8.7151 C   0  0  0  0  0  0  0  0  0  0  0  0
    8.7709    8.2700   -9.1810 C   0  0  0  0  0  0  0  0  0  0  0  0
    9.0229    9.4263   -8.4775 N   0  0  0  0  0  0  0  0  0  0  0  0
    8.4318    9.7651   -7.2870 C   0  0  0  0  0  0  0  0  0  0  0  0
    8.6548   10.8132   -6.6987 O   0  0  0  0  0  0  0  0  0  0  0  0
    7.4991    8.7564   -6.7324 C   0  0  0  0  0  0  0  0  0  0  0  0
    9.5711    8.0629  -10.4393 C   0  0  0  0  0  0  0  0  0  0  0  0
    9.5909    6.5936  -10.8578 C   0  0  0  0  0  0  0  0  0  0  0  0
    8.1797    6.0155  -10.8561 C   0  0  0  0  0  0  0  0  0  0  0  0
    7.5107    6.1101   -9.4691 C   0  0  2  0  0  0  0  0  0  0  0  0
    6.0126    5.9975   -9.6683 N   0  0  0  0  0  4  0  0  0  0  0  0
    5.4565    4.7212  -10.2095 C   0  0  0  0  0  0  0  0  0  0  0  0
    5.6437    3.5387   -9.2611 C   0  0  0  0  0  0  0  0  0  0  0  0
    4.9434    3.6993   -7.9061 C   0  0  0  0  0  0  0  0  0  0  0  0
    5.0579    2.4162   -7.0751 C   0  0  0  0  0  0  0  0  0  0  0  0
    4.3408    2.5317   -5.7254 C   0  0  0  0  0  0  0  0  0  0  0  0
    4.4713    1.2323   -4.9247 C   0  0  0  0  0  0  0  0  0  0  0  0
    3.7589    1.3061   -3.5688 C   0  0  0  0  0  0  0  0  0  0  0  0
    3.9450   -0.0001   -2.7890 C   0  0  0  0  0  0  0  0  0  0  0  0
    3.3484    0.0202   -1.3780 C   0  0  0  0  0  0  0  0  0  0  0  0
    1.8230    0.0834   -1.3677 C   0  0  0  0  0  0  0  0  0  0  0  0
    1.3461   -0.0893    0.0421 N   0  0  0  0  0  4  0  0  0  0  0  0
   -0.1348   -0.2840    0.2895 C   0  0  2  0  0  0  0  0  0  0  0  0
   -0.6995   -1.4987   -0.4088 C   0  0  0  0  0  0  0  0  0  0  0  0
   -0.2086   -2.8165   -0.0226 C   0  0  0  0  0  0  0  0  0  0  0  0
   -0.6611   -3.9283   -0.6207 C   0  0  0  0  0  0  0  0  0  0  0  0
   -1.6876   -3.8260   -1.6843 C   0  0  0  0  0  0  0  0  0  0  0  0
   -2.0955   -4.8149   -2.2755 O   0  0  0  0  0  0  0  0  0  0  0  0
   -2.1349   -2.5561   -1.9517 N   0  0  0  0  0  0  0  0  0  0  0  0
   -1.6711   -1.4129   -1.3414 C   0  0  0  0  0  0  0  0  0  0  0  0
   -2.2967   -0.1173   -1.7833 C   0  0  0  0  0  0  0  0  0  0  0  0
   -1.4541    1.1050   -1.4223 C   0  0  0  0  0  0  0  0  0  0  0  0
   -0.9008    1.0207   -0.0002 C   0  0  0  0  0  0  0  0  0  0  0  0
    6.6196    6.8765   -6.9568 H   0  0  0  0  0  0  0  0  0  0  0  0
    9.6901   10.1095   -8.8257 H   0  0  0  0  0  0  0  0  0  0  0  0
    7.0773    8.9748   -5.7589 H   0  0  0  0  0  0  0  0  0  0  0  0
   10.6056    8.3966  -10.2934 H   0  0  0  0  0  0  0  0  0  0  0  0
    9.1409    8.6763  -11.2404 H   0  0  0  0  0  0  0  0  0  0  0  0
   10.0325    6.5009  -11.8566 H   0  0  0  0  0  0  0  0  0  0  0  0
   10.2253    6.0174  -10.1721 H   0  0  0  0  0  0  0  0  0  0  0  0
    8.2244    4.9668  -11.1741 H   0  0  0  0  0  0  0  0  0  0  0  0
    7.5849    6.5485  -11.6101 H   0  0  0  0  0  0  0  0  0  0  0  0
    7.8157    5.2571   -8.8523 H   0  0  0  0  0  0  0  0  0  0  0  0
    5.7369    6.7643  -10.2989 H   0  0  0  0  0  0  0  0  0  0  0  0
    5.5353    6.2201   -8.7887 H   0  0  0  0  0  0  0  0  0  0  0  0
    5.9269    4.5330  -11.1788 H   0  0  0  0  0  0  0  0  0  0  0  0
    4.3909    4.9071  -10.3820 H   0  0  0  0  0  0  0  0  0  0  0  0
    6.7097    3.3385   -9.1054 H   0  0  0  0  0  0  0  0  0  0  0  0
    5.2393    2.6493   -9.7609 H   0  0  0  0  0  0  0  0  0  0  0  0
    5.3876    4.5303   -7.3473 H   0  0  0  0  0  0  0  0  0  0  0  0
    3.8855    3.9391   -8.0655 H   0  0  0  0  0  0  0  0  0  0  0  0
    6.1173    2.1858   -6.9075 H   0  0  0  0  0  0  0  0  0  0  0  0
    4.6321    1.5775   -7.6399 H   0  0  0  0  0  0  0  0  0  0  0  0
    4.7671    3.3633   -5.1515 H   0  0  0  0  0  0  0  0  0  0  0  0
    3.2805    2.7585   -5.8893 H   0  0  0  0  0  0  0  0  0  0  0  0
    4.0544    0.4014   -5.5076 H   0  0  0  0  0  0  0  0  0  0  0  0
    5.5343    1.0112   -4.7661 H   0  0  0  0  0  0  0  0  0  0  0  0
    4.1620    2.1432   -2.9864 H   0  0  0  0  0  0  0  0  0  0  0  0
    2.6923    1.5013   -3.7282 H   0  0  0  0  0  0  0  0  0  0  0  0
    3.5131   -0.8338   -3.3563 H   0  0  0  0  0  0  0  0  0  0  0  0
    5.0190   -0.2066   -2.6976 H   0  0  0  0  0  0  0  0  0  0  0  0
    3.6765   -0.8920   -0.8632 H   0  0  0  0  0  0  0  0  0  0  0  0
    3.7614    0.8649   -0.8130 H   0  0  0  0  0  0  0  0  0  0  0  0
    1.3923   -0.7169   -1.9750 H   0  0  0  0  0  0  0  0  0  0  0  0
    1.4748    1.0591   -1.7114 H   0  0  0  0  0  0  0  0  0  0  0  0
    1.6705    0.7033    0.6116 H   0  0  0  0  0  0  0  0  0  0  0  0
    1.8182   -0.9122    0.4378 H   0  0  0  0  0  0  0  0  0  0  0  0
   -0.1920   -0.4502    1.3736 H   0  0  0  0  0  0  0  0  0  0  0  0
    0.5087   -2.9152    0.7864 H   0  0  0  0  0  0  0  0  0  0  0  0
   -0.3367   -4.9276   -0.3554 H   0  0  0  0  0  0  0  0  0  0  0  0
   -2.8643   -2.5102   -2.6574 H   0  0  0  0  0  0  0  0  0  0  0  0
   -2.4548   -0.1211   -2.8688 H   0  0  0  0  0  0  0  0  0  0  0  0
   -3.2856   -0.0309   -1.3158 H   0  0  0  0  0  0  0  0  0  0  0  0
   -2.0639    2.0103   -1.5259 H   0  0  0  0  0  0  0  0  0  0  0  0
   -0.6383    1.2044   -2.1447 H   0  0  0  0  0  0  0  0  0  0  0  0
   -1.7523    1.0763    0.6920 H   0  0  0  0  0  0  0  0  0  0  0  0
   -0.2808    1.8998    0.2121 H   0  0  0  0  0  0  0  0  0  0  0  0
 35  1  1  0
  1  2  1  0
  2  3  2  0
  3  4  1  0
  4 36  1  0
  4  5  1  0
  5  6  2  0
  1  7  2  0
  5  7  1  0
  7 37  1  0
  3  8  1  0
  8 38  1  0
  8 39  1  0
  8  9  1  0
  9 40  1  0
  9 41  1  0
  9 10  1  0
 10 42  1  0
 10 43  1  0
  2 11  1  0
 10 11  1  0
 11 44  1  1
 11 12  1  0
 12 45  1  0
 12 46  1  0
 12 13  1  0
 13 47  1  0
 13 48  1  0
 13 14  1  0
 14 49  1  0
 14 50  1  0
 14 15  1  0
 15 51  1  0
 15 52  1  0
 15 16  1  0
 16 53  1  0
 16 54  1  0
 16 17  1  0
 17 55  1  0
 17 56  1  0
 17 18  1  0
 18 57  1  0
 18 58  1  0
 18 19  1  0
 19 59  1  0
 19 60  1  0
 19 20  1  0
 20 61  1  0
 20 62  1  0
 20 21  1  0
 21 63  1  0
 21 64  1  0
 21 22  1  0
 22 65  1  0
 22 66  1  0
 22 23  1  0
 23 67  1  0
 23 68  1  0
 23 24  1  0
 24 69  1  1
 24 25  1  0
 25 26  1  0
 26 70  1  0
 26 27  2  0
 27 71  1  0
 27 28  1  0
 28 29  2  0
 28 30  1  0
 30 72  1  0
 25 31  2  0
 30 31  1  0
 31 32  1  0
 32 73  1  0
 32 74  1  0
 32 33  1  0
 33 75  1  0
 33 76  1  0
 24 34  1  0
 33 34  1  0
 34 77  1  0
 34 78  1  0
M  CHG  2  12   1  23   1
M  END
>  <conformer_energy>  (1) 
26.26

>  <ligand_smiles>  (1) 
O=c1ccc2c([nH]1)CCC[C@@H]2[NH2+]CCCCCCCCCC[NH2+][C@H]1CCCc2[nH]c(=O)ccc21

>  <ligand_conf_name>  (1) 
MOL_0_isomer_0_conf_0

>  <ligand_molecule_name>  (1) 
MOL_0_isomer_0

$$$$
