MOL_0_isomer_0_conf_0
     RDKit          3D

 30 32  0  0  0  0  0  0  0  0999 V2000
    5.6588   -0.0899    0.3483 C   0  0  0  0  0  0  0  0  0  0  0  0
    6.3324    0.9578    0.8451 C   0  0  0  0  0  0  0  0  0  0  0  0
    7.8359    0.9306    0.9235 C   0  0  0  0  0  0  0  0  0  0  0  0
    8.5884    0.0387    0.5803 O   0  0  0  0  0  0  0  0  0  0  0  0
    8.1877    2.1516    1.4765 N   0  0  0  0  0  0  0  0  0  0  0  0
    7.0633    2.9278    1.7471 C   0  0  0  0  0  0  0  0  0  0  0  0
    7.0530    4.1942    2.2981 C   0  0  0  0  0  0  0  0  0  0  0  0
    5.8099    4.8006    2.4875 C   0  0  0  0  0  0  0  0  0  0  0  0
    4.6253    4.1345    2.1262 C   0  0  0  0  0  0  0  0  0  0  0  0
    4.6612    2.8503    1.5690 C   0  0  0  0  0  0  0  0  0  0  0  0
    5.8934    2.2504    1.3817 C   0  0  0  0  0  0  0  0  0  0  0  0
    4.2041   -0.1654    0.2279 C   0  0  0  0  0  0  0  0  0  0  0  0
    3.4368   -0.6683    1.2824 C   0  0  0  0  0  0  0  0  0  0  0  0
    2.0426   -0.6947    1.1842 C   0  0  0  0  0  0  0  0  0  0  0  0
    1.3894   -0.2225    0.0339 C   0  0  0  0  0  0  0  0  0  0  0  0
   -0.1248   -0.2337   -0.0619 C   0  0  0  0  0  0  0  0  0  0  0  0
   -0.7649   -0.6862    0.9392 O   0  0  0  0  0  0  0  0  0  0  0  0
   -0.6403    0.2166   -1.1335 O   0  0  0  0  0  1  0  0  0  0  0  0
    2.1752    0.2665   -1.0225 C   0  0  0  0  0  0  0  0  0  0  0  0
    3.5697    0.2951   -0.9292 C   0  0  0  0  0  0  0  0  0  0  0  0
    6.1928   -0.9700   -0.0030 H   0  0  0  0  0  0  0  0  0  0  0  0
    9.1438    2.4160    1.6491 H   0  0  0  0  0  0  0  0  0  0  0  0
    7.9681    4.7033    2.5748 H   0  0  0  0  0  0  0  0  0  0  0  0
    5.7517    5.7974    2.9182 H   0  0  0  0  0  0  0  0  0  0  0  0
    3.6629    4.6195    2.2796 H   0  0  0  0  0  0  0  0  0  0  0  0
    3.7337    2.3553    1.2976 H   0  0  0  0  0  0  0  0  0  0  0  0
    3.9091   -1.0310    2.1908 H   0  0  0  0  0  0  0  0  0  0  0  0
    1.4460   -1.0799    2.0100 H   0  0  0  0  0  0  0  0  0  0  0  0
    1.6823    0.6329   -1.9220 H   0  0  0  0  0  0  0  0  0  0  0  0
    4.1465    0.6901   -1.7605 H   0  0  0  0  0  0  0  0  0  0  0  0
 21  1  1  0
  1  2  2  0
  2  3  1  0
  3  4  2  0
  3  5  1  0
  5 22  1  0
  5  6  1  0
  6  7  1  0
  7 23  1  0
  7  8  2  0
  8 24  1  0
  8  9  1  0
  9 25  1  0
  9 10  2  0
 10 26  1  0
  6 11  2  0
  2 11  1  0
 10 11  1  0
  1 12  1  0
 12 13  2  0
 13 27  1  0
 13 14  1  0
 14 28  1  0
 14 15  2  0
 15 16  1  0
 16 17  2  0
 16 18  1  0
 15 19  1  0
 19 29  1  0
 12 20  1  0
 19 20  2  0
 20 30  1  0
M  CHG  1  18  -1
M  END
>  <conformer_energy>  (1) 
56.50

>  <ligand_smiles>  (1) 
O=C1Nc2ccccc2/C1=C\c1ccc(C(=O)[O-])cc1

>  <ligand_conf_name>  (1) 
MOL_0_isomer_0_conf_0

>  <ligand_molecule_name>  (1) 
MOL_0_isomer_0

$$$$
