MOL_0_isomer_0_conf_0
     RDKit          3D

 49 48  0  0  0  0  0  0  0  0999 V2000
   -0.6330   -7.3056   -2.8656 C   0  0  0  0  0  0  0  0  0  0  0  0
    0.1760   -8.3668   -2.6806 C   0  0  0  0  0  0  0  0  0  0  0  0
    0.5287   -8.9581   -1.3432 C   0  0  0  0  0  0  0  0  0  0  0  0
    0.8387   -9.0376   -3.8524 C   0  0  0  0  0  0  0  0  0  0  0  0
   -1.3822   -6.5112   -1.8206 C   0  0  0  0  0  0  0  0  0  0  0  0
   -0.8321   -5.0889   -1.6387 C   0  0  0  0  0  0  0  0  0  0  0  0
    0.4827   -5.0154   -0.8828 C   0  0  0  0  0  0  0  0  0  0  0  0
    1.6190   -4.6682   -1.5212 C   0  0  0  0  0  0  0  0  0  0  0  0
    2.9663   -4.3864   -0.9066 C   0  0  0  0  0  0  0  0  0  0  0  0
    3.2699   -2.8785   -0.8144 C   0  0  0  0  0  0  0  0  0  0  0  0
    2.3889   -2.1541    0.1756 C   0  0  0  0  0  0  0  0  0  0  0  0
    1.3676   -1.3663   -0.2252 C   0  0  0  0  0  0  0  0  0  0  0  0
    1.2151   -1.1693   -1.5606 F   0  0  0  0  0  0  0  0  0  0  0  0
    0.3581   -0.7073    0.6812 C   0  0  0  0  0  0  0  0  0  0  0  0
   -0.8311   -1.4650    0.6300 O   0  0  0  0  0  0  0  0  0  0  0  0
   -1.8495   -1.2757    1.8959 P   0  0  1  0  0  5  0  0  0  0  0  0
   -1.9822    0.2208    2.1135 O   0  0  0  0  0  0  0  0  0  0  0  0
   -3.1040   -2.0318    1.4585 O   0  0  0  0  0  1  0  0  0  0  0  0
   -1.0814   -2.1131    3.0128 O   0  0  0  0  0  0  0  0  0  0  0  0
   -0.1487   -1.9248    4.3121 P   0  0  0  0  0  5  0  0  0  0  0  0
    0.9326   -0.9027    3.9747 O   0  0  0  0  0  0  0  0  0  0  0  0
    0.4524   -3.3216    4.5319 O   0  0  0  0  0  1  0  0  0  0  0  0
   -1.0621   -1.5111    5.4618 O   0  0  0  0  0  1  0  0  0  0  0  0
    2.6590   -2.4196    1.6337 C   0  0  0  0  0  0  0  0  0  0  0  0
    0.3519   -5.1999    0.6108 C   0  0  0  0  0  0  0  0  0  0  0  0
   -0.7906   -6.9395   -3.8793 H   0  0  0  0  0  0  0  0  0  0  0  0
    1.6132   -8.9209   -1.1927 H   0  0  0  0  0  0  0  0  0  0  0  0
    0.2128  -10.0061   -1.3016 H   0  0  0  0  0  0  0  0  0  0  0  0
    0.0711   -8.4409   -0.4988 H   0  0  0  0  0  0  0  0  0  0  0  0
    0.5467  -10.0922   -3.8999 H   0  0  0  0  0  0  0  0  0  0  0  0
    0.5653   -8.5739   -4.8065 H   0  0  0  0  0  0  0  0  0  0  0  0
    1.9280   -8.9821   -3.7571 H   0  0  0  0  0  0  0  0  0  0  0  0
   -1.4401   -7.0345   -0.8625 H   0  0  0  0  0  0  0  0  0  0  0  0
   -2.4219   -6.4316   -2.1663 H   0  0  0  0  0  0  0  0  0  0  0  0
   -1.5747   -4.4895   -1.0949 H   0  0  0  0  0  0  0  0  0  0  0  0
   -0.7356   -4.6072   -2.6204 H   0  0  0  0  0  0  0  0  0  0  0  0
    1.5692   -4.4886   -2.5925 H   0  0  0  0  0  0  0  0  0  0  0  0
    3.7246   -4.8533   -1.5484 H   0  0  0  0  0  0  0  0  0  0  0  0
    3.0835   -4.8621    0.0720 H   0  0  0  0  0  0  0  0  0  0  0  0
    3.1855   -2.4307   -1.8140 H   0  0  0  0  0  0  0  0  0  0  0  0
    4.3189   -2.7404   -0.5206 H   0  0  0  0  0  0  0  0  0  0  0  0
    0.7275   -0.5967    1.6949 H   0  0  0  0  0  0  0  0  0  0  0  0
    0.1499    0.2966    0.2985 H   0  0  0  0  0  0  0  0  0  0  0  0
    1.8488   -3.0013    2.0786 H   0  0  0  0  0  0  0  0  0  0  0  0
    3.5867   -2.9869    1.7652 H   0  0  0  0  0  0  0  0  0  0  0  0
    2.7907   -1.4825    2.1834 H   0  0  0  0  0  0  0  0  0  0  0  0
   -0.2819   -4.4131    1.0329 H   0  0  0  0  0  0  0  0  0  0  0  0
   -0.1041   -6.1686    0.8378 H   0  0  0  0  0  0  0  0  0  0  0  0
    1.3086   -5.1754    1.1356 H   0  0  0  0  0  0  0  0  0  0  0  0
 26  1  1  0
  1  2  2  3
  2  3  1  0
  3 27  1  0
  3 28  1  0
  3 29  1  0
  2  4  1  0
  4 30  1  0
  4 31  1  0
  4 32  1  0
  1  5  1  0
  5 33  1  0
  5 34  1  0
  5  6  1  0
  6 35  1  0
  6 36  1  0
  6  7  1  0
  7  8  2  0
  8 37  1  0
  8  9  1  0
  9 38  1  0
  9 39  1  0
  9 10  1  0
 10 40  1  0
 10 41  1  0
 10 11  1  0
 11 12  2  0
 12 13  1  0
 12 14  1  0
 14 42  1  0
 14 43  1  0
 14 15  1  0
 15 16  1  0
 16 17  2  0
 16 18  1  6
 16 19  1  0
 19 20  1  0
 20 21  2  0
 20 22  1  0
 20 23  1  0
 11 24  1  0
 24 44  1  0
 24 45  1  0
 24 46  1  0
  7 25  1  0
 25 47  1  0
 25 48  1  0
 25 49  1  0
M  CHG  3  18  -1  22  -1  23  -1
M  END
>  <conformer_energy>  (1) 
13.92

>  <ligand_smiles>  (1) 
CC(C)=CCC/C(C)=C/CC/C(C)=C(\F)CO[P@@](=O)([O-])OP(=O)([O-])[O-]

>  <ligand_conf_name>  (1) 
MOL_0_isomer_0_conf_0

>  <ligand_molecule_name>  (1) 
MOL_0_isomer_0

$$$$
