MOL_0_isomer_0_conf_0
     RDKit          3D

 37 38  0  0  0  0  0  0  0  0999 V2000
    3.5903   -1.9494   -2.4863 O   0  0  0  0  0  0  0  0  0  0  0  0
    2.3741   -1.3156   -2.0996 C   0  0  1  0  0  0  0  0  0  0  0  0
    2.0869   -1.5707   -0.6110 C   0  0  1  0  0  0  0  0  0  0  0  0
    3.3613   -1.7423    0.0524 O   0  0  0  0  0  0  0  0  0  0  0  0
    1.4495   -0.2671   -0.0880 C   0  0  2  0  0  0  0  0  0  0  0  0
   -0.0580   -0.1391   -0.1707 C   0  0  0  0  0  0  0  0  0  0  0  0
   -0.7193    0.6021    0.8260 C   0  0  0  0  0  0  0  0  0  0  0  0
   -2.1045    0.7804    0.7938 C   0  0  0  0  0  0  0  0  0  0  0  0
   -2.8705    0.2218   -0.2264 C   0  0  0  0  0  0  0  0  0  0  0  0
   -4.2085    0.4748   -0.1394 O   0  0  0  0  0  0  0  0  0  0  0  0
   -5.0507   -0.1196   -1.1203 C   0  0  0  0  0  0  0  0  0  0  0  0
   -2.2342   -0.5213   -1.2161 C   0  0  0  0  0  0  0  0  0  0  0  0
   -0.8426   -0.7011   -1.1886 C   0  0  0  0  0  0  0  0  0  0  0  0
    2.2451    0.7822   -0.8686 N   0  0  2  0  0  4  0  0  0  0  0  0
    1.7585    2.1892   -0.7699 C   0  0  0  0  0  0  0  0  0  0  0  0
    2.3870    0.2255   -2.2756 C   0  0  1  0  0  0  0  0  0  0  0  0
    3.6357    0.7884   -2.9373 C   0  0  0  0  0  0  0  0  0  0  0  0
    4.2066   -1.9089   -1.7272 H   0  0  0  0  0  0  0  0  0  0  0  0
    1.5844   -1.7333   -2.7308 H   0  0  0  0  0  0  0  0  0  0  0  0
    1.4805   -2.4642   -0.4324 H   0  0  0  0  0  0  0  0  0  0  0  0
    3.4654   -2.7003    0.2338 H   0  0  0  0  0  0  0  0  0  0  0  0
    1.7521   -0.1260    0.9587 H   0  0  0  0  0  0  0  0  0  0  0  0
   -0.1710    1.0512    1.6537 H   0  0  0  0  0  0  0  0  0  0  0  0
   -2.5966    1.3557    1.5767 H   0  0  0  0  0  0  0  0  0  0  0  0
   -6.0827    0.1622   -0.8905 H   0  0  0  0  0  0  0  0  0  0  0  0
   -4.9865   -1.2121   -1.0856 H   0  0  0  0  0  0  0  0  0  0  0  0
   -4.8157    0.2585   -2.1207 H   0  0  0  0  0  0  0  0  0  0  0  0
   -2.7959   -0.9793   -2.0258 H   0  0  0  0  0  0  0  0  0  0  0  0
   -0.4188   -1.3014   -1.9873 H   0  0  0  0  0  0  0  0  0  0  0  0
    3.1836    0.7460   -0.4408 H   0  0  0  0  0  0  0  0  0  0  0  0
    1.6593    2.4414    0.2888 H   0  0  0  0  0  0  0  0  0  0  0  0
    2.5068    2.8401   -1.2279 H   0  0  0  0  0  0  0  0  0  0  0  0
    0.8038    2.2806   -1.2934 H   0  0  0  0  0  0  0  0  0  0  0  0
    1.4888    0.5372   -2.8222 H   0  0  0  0  0  0  0  0  0  0  0  0
    3.5635    1.8734   -3.0622 H   0  0  0  0  0  0  0  0  0  0  0  0
    3.7700    0.3550   -3.9339 H   0  0  0  0  0  0  0  0  0  0  0  0
    4.5361    0.5788   -2.3499 H   0  0  0  0  0  0  0  0  0  0  0  0
 18  1  1  0
  1  2  1  0
  2 19  1  6
  2  3  1  0
  3 20  1  6
  3  4  1  0
  4 21  1  0
  3  5  1  0
  5 22  1  1
  5  6  1  0
  6  7  2  0
  7 23  1  0
  7  8  1  0
  8 24  1  0
  8  9  2  0
  9 10  1  0
 10 11  1  0
 11 25  1  0
 11 26  1  0
 11 27  1  0
  9 12  1  0
 12 28  1  0
  6 13  1  0
 12 13  2  0
 13 29  1  0
  5 14  1  0
 14 30  1  1
 14 15  1  0
 15 31  1  0
 15 32  1  0
 15 33  1  0
  2 16  1  0
 14 16  1  0
 16 34  1  6
 16 17  1  0
 17 35  1  0
 17 36  1  0
 17 37  1  0
M  CHG  1  14   1
M  END
>  <conformer_energy>  (1) 
105.30

>  <ligand_smiles>  (1) 
COc1ccc([C@H]2[C@H](O)[C@H](O)[C@H](C)[N@H+]2C)cc1

>  <ligand_conf_name>  (1) 
MOL_0_isomer_0_conf_0

>  <ligand_molecule_name>  (1) 
MOL_0_isomer_0

$$$$
