MOL_0_isomer_0_conf_0
     RDKit          3D

 51 53  0  0  0  0  0  0  0  0999 V2000
    4.3706    4.0920   -4.5017 O   0  0  0  0  0  0  0  0  0  0  0  0
    4.4832    4.8828   -3.3143 C   0  0  0  0  0  0  0  0  0  0  0  0
    3.1764    4.8415   -2.5071 C   0  0  1  0  0  0  0  0  0  0  0  0
    3.0092    3.5194   -1.9774 O   0  0  0  0  0  0  0  0  0  0  0  0
    1.7689    3.3704   -1.3067 C   0  0  1  0  0  0  0  0  0  0  0  0
    1.6107    2.0267   -0.8437 O   0  0  0  0  0  0  0  0  0  0  0  0
    1.4439    1.0939   -1.9123 C   0  0  0  0  0  0  0  0  0  0  0  0
    0.9419   -0.2300   -1.3338 C   0  0  0  0  0  0  0  0  0  0  0  0
   -0.4429   -0.0862   -0.7356 C   0  0  0  0  0  0  0  0  0  0  0  0
   -0.5871    0.1986    0.6414 C   0  0  0  0  0  0  0  0  0  0  0  0
   -1.8498    0.3730    1.2114 C   0  0  0  0  0  0  0  0  0  0  0  0
   -2.9475    0.2723    0.3846 C   0  0  0  0  0  0  0  0  0  0  0  0
   -2.8262   -0.0104   -0.9664 C   0  0  0  0  0  0  0  0  0  0  0  0
   -1.5836   -0.1977   -1.5470 C   0  0  0  0  0  0  0  0  0  0  0  0
   -4.1759   -0.1336   -1.5601 C   0  0  0  0  0  0  0  0  0  0  0  0
   -4.9956    0.4941   -0.4312 C   0  0  0  0  0  0  0  0  0  0  0  0
   -4.2438    0.4194    0.8034 O   0  0  0  0  0  0  0  0  0  0  0  0
    1.6546    4.2908   -0.0603 C   0  0  2  0  0  0  0  0  0  0  0  0
    0.3235    4.0653    0.5562 N   0  0  0  0  0  0  0  0  0  0  0  0
   -0.1912    4.7315    1.6345 C   0  0  0  0  0  0  0  0  0  0  0  0
    0.3583    5.6920    2.1620 O   0  0  0  0  0  0  0  0  0  0  0  0
   -1.4954    4.1726    2.1352 C   0  0  0  0  0  0  0  0  0  0  0  0
    1.9367    5.7470   -0.4901 C   0  0  1  0  0  0  0  0  0  0  0  0
    2.1759    6.6366    0.6132 O   0  0  0  0  0  0  0  0  0  0  0  0
    3.2034    5.8476   -1.3584 C   0  0  2  0  0  0  0  0  0  0  0  0
    3.3094    7.1858   -1.8564 O   0  0  0  0  0  0  0  0  0  0  0  0
    3.7254    4.5316   -5.0805 H   0  0  0  0  0  0  0  0  0  0  0  0
    5.3108    4.4671   -2.7308 H   0  0  0  0  0  0  0  0  0  0  0  0
    4.7453    5.9005   -3.6193 H   0  0  0  0  0  0  0  0  0  0  0  0
    2.3464    5.0553   -3.1940 H   0  0  0  0  0  0  0  0  0  0  0  0
    0.9457    3.5981   -1.9994 H   0  0  0  0  0  0  0  0  0  0  0  0
    0.7314    1.4796   -2.6519 H   0  0  0  0  0  0  0  0  0  0  0  0
    2.4117    0.9396   -2.4018 H   0  0  0  0  0  0  0  0  0  0  0  0
    0.9197   -0.9959   -2.1183 H   0  0  0  0  0  0  0  0  0  0  0  0
    1.6321   -0.5888   -0.5601 H   0  0  0  0  0  0  0  0  0  0  0  0
    0.2966    0.2869    1.2722 H   0  0  0  0  0  0  0  0  0  0  0  0
   -1.9663    0.5813    2.2687 H   0  0  0  0  0  0  0  0  0  0  0  0
   -1.4973   -0.4322   -2.6041 H   0  0  0  0  0  0  0  0  0  0  0  0
   -4.2976    0.4083   -2.5011 H   0  0  0  0  0  0  0  0  0  0  0  0
   -4.4355   -1.1883   -1.6968 H   0  0  0  0  0  0  0  0  0  0  0  0
   -5.9567   -0.0141   -0.3011 H   0  0  0  0  0  0  0  0  0  0  0  0
   -5.1988    1.5537   -0.6337 H   0  0  0  0  0  0  0  0  0  0  0  0
    2.3860    3.9935    0.7022 H   0  0  0  0  0  0  0  0  0  0  0  0
   -0.1114    3.1760    0.3185 H   0  0  0  0  0  0  0  0  0  0  0  0
   -2.0911    3.7712    1.3104 H   0  0  0  0  0  0  0  0  0  0  0  0
   -2.0688    4.9668    2.6215 H   0  0  0  0  0  0  0  0  0  0  0  0
   -1.2920    3.3764    2.8560 H   0  0  0  0  0  0  0  0  0  0  0  0
    1.0763    6.1554   -1.0344 H   0  0  0  0  0  0  0  0  0  0  0  0
    1.4996    6.4414    1.3023 H   0  0  0  0  0  0  0  0  0  0  0  0
    4.0837    5.6692   -0.7266 H   0  0  0  0  0  0  0  0  0  0  0  0
    3.1722    7.7527   -1.0674 H   0  0  0  0  0  0  0  0  0  0  0  0
 27  1  1  0
  1  2  1  0
  2 28  1  0
  2 29  1  0
  2  3  1  0
  3 30  1  6
  3  4  1  0
  4  5  1  0
  5 31  1  6
  5  6  1  0
  6  7  1  0
  7 32  1  0
  7 33  1  0
  7  8  1  0
  8 34  1  0
  8 35  1  0
  8  9  1  0
  9 10  2  0
 10 36  1  0
 10 11  1  0
 11 37  1  0
 11 12  2  0
 12 13  1  0
  9 14  1  0
 13 14  2  0
 14 38  1  0
 13 15  1  0
 15 39  1  0
 15 40  1  0
 15 16  1  0
 16 41  1  0
 16 42  1  0
 12 17  1  0
 16 17  1  0
  5 18  1  0
 18 43  1  1
 18 19  1  0
 19 44  1  0
 19 20  1  0
 20 21  2  0
 20 22  1  0
 22 45  1  0
 22 46  1  0
 22 47  1  0
 18 23  1  0
 23 48  1  6
 23 24  1  0
 24 49  1  0
  3 25  1  0
 23 25  1  0
 25 50  1  1
 25 26  1  0
 26 51  1  0
M  END
>  <conformer_energy>  (1) 
96.41

>  <ligand_smiles>  (1) 
CC(=O)N[C@H]1[C@H](OCCc2ccc3c(c2)CCO3)O[C@H](CO)[C@@H](O)[C@@H]1O

>  <ligand_conf_name>  (1) 
MOL_0_isomer_0_conf_0

>  <ligand_molecule_name>  (1) 
MOL_0_isomer_0

$$$$
