MOL_0_isomer_0_conf_0
     RDKit          3D

140142  0  0  0  0  0  0  0  0999 V2000
   19.3822   16.0670   -3.4985 O   0  0  0  0  0  0  0  0  0  0  0  0
   19.0017   16.8821   -2.3881 C   0  0  1  0  0  0  0  0  0  0  0  0
   19.4398   18.3224   -2.5619 C   0  0  1  0  0  0  0  0  0  0  0  0
   19.3320   18.6491   -3.9618 O   0  0  0  0  0  0  0  0  0  0  0  0
   18.4060   19.0830   -1.7244 C   0  0  2  0  0  0  0  0  0  0  0  0
   18.8525   19.3846   -0.3779 N   0  0  0  0  0  0  0  0  0  0  0  0
   18.3383   18.9391    0.8082 C   0  0  0  0  0  0  0  0  0  0  0  0
   18.9579   19.4728    1.8425 N   0  0  0  0  0  0  0  0  0  0  0  0
   19.9026   20.3178    1.2951 C   0  0  0  0  0  0  0  0  0  0  0  0
   20.8524   21.1832    1.8636 C   0  0  0  0  0  0  0  0  0  0  0  0
   21.0034   21.3521    3.2185 N   0  0  0  0  0  0  0  0  0  0  0  0
   21.6484   21.8969    1.0342 N   0  0  0  0  0  0  0  0  0  0  0  0
   21.4949   21.7432   -0.2992 C   0  0  0  0  0  0  0  0  0  0  0  0
   20.6290   20.9382   -0.9576 N   0  0  0  0  0  0  0  0  0  0  0  0
   19.8575   20.2685   -0.0873 C   0  0  0  0  0  0  0  0  0  0  0  0
   17.2131   18.2747   -1.6695 O   0  0  0  0  0  0  0  0  0  0  0  0
   17.4887   17.0028   -2.2669 C   0  0  2  0  0  0  0  0  0  0  0  0
   16.9528   15.8186   -1.4482 C   0  0  0  0  0  0  0  0  0  0  0  0
   16.3786   15.9468   -0.3697 O   0  0  0  0  0  0  0  0  0  0  0  0
   17.1737   14.5904   -2.0423 N   0  0  0  0  0  0  0  0  0  0  0  0
   16.7692   13.3478   -1.4242 C   0  0  0  0  0  0  0  0  0  0  0  0
   15.2673   13.1144   -1.5562 C   0  0  0  0  0  0  0  0  0  0  0  0
   14.8366   11.8097   -0.8838 C   0  0  0  0  0  0  0  0  0  0  0  0
   13.3137   11.6975   -0.8521 C   0  0  0  0  0  0  0  0  0  0  0  0
   12.8504   10.3780   -0.2439 C   0  0  0  0  0  0  0  0  0  0  0  0
   11.3402   10.3103   -0.1375 C   0  0  0  0  0  0  0  0  0  0  0  0
   10.5852   11.2311   -0.4343 O   0  0  0  0  0  0  0  0  0  0  0  0
   10.8793    9.1125    0.3512 N   0  0  0  0  0  0  0  0  0  0  0  0
    9.4527    8.8333    0.5030 C   0  0  1  0  0  0  0  0  0  0  0  0
    9.2590    7.4087   -0.0494 C   0  0  0  0  0  0  0  0  0  0  0  0
    9.6364    6.4107    0.5606 O   0  0  0  0  0  0  0  0  0  0  0  0
    8.7900    7.3765   -1.3486 N   0  0  0  0  0  0  0  0  0  0  0  0
    8.8377    6.1879   -2.1736 C   0  0  0  0  0  0  0  0  0  0  0  0
    7.7733    5.1488   -1.8271 C   0  0  0  0  0  0  0  0  0  0  0  0
    7.7640    4.0340   -2.8781 C   0  0  0  0  0  0  0  0  0  0  0  0
    6.9290    2.8263   -2.4485 C   0  0  0  0  0  0  0  0  0  0  0  0
    6.9024    1.7629   -3.5475 C   0  0  0  0  0  0  0  0  0  0  0  0
    6.3375    0.4355   -3.0768 C   0  0  0  0  0  0  0  0  0  0  0  0
    5.8989    0.2286   -1.9495 O   0  0  0  0  0  0  0  0  0  0  0  0
    6.3655   -0.5384   -4.0549 N   0  0  0  0  0  0  0  0  0  0  0  0
    5.8539   -1.8712   -3.7851 C   0  0  1  0  0  0  0  0  0  0  0  0
    4.3281   -1.8595   -4.0019 C   0  0  0  0  0  0  0  0  0  0  0  0
    3.8159   -1.5313   -5.0687 O   0  0  0  0  0  0  0  0  0  0  0  0
    3.5946   -2.2721   -2.9136 N   0  0  0  0  0  0  0  0  0  0  0  0
    2.1842   -2.6018   -3.0347 C   0  0  1  0  0  0  0  0  0  0  0  0
    2.1200   -4.1071   -3.3651 C   0  0  0  0  0  0  0  0  0  0  0  0
    2.9663   -4.9161   -2.9885 O   0  0  0  0  0  0  0  0  0  0  0  0
    1.0273   -4.5183   -4.0706 N   0  0  0  0  0  0  0  0  0  0  0  0
    1.4173   -2.3135   -1.7363 C   0  0  0  0  0  0  0  0  0  0  0  0
    1.3630   -0.8142   -1.4154 C   0  0  0  0  0  0  0  0  0  0  0  0
    0.6617   -0.5213   -0.0875 C   0  0  0  0  0  0  0  0  0  0  0  0
   -0.7864   -0.7734   -0.1593 N   0  0  0  0  0  0  0  0  0  0  0  0
   -1.6412   -0.5656    0.8590 C   0  0  0  0  0  0  0  0  0  0  0  0
   -1.2307   -0.1200    2.0477 N   0  0  0  0  0  0  0  0  0  0  0  0
   -2.9435   -0.8119    0.6834 N   0  0  0  0  0  4  0  0  0  0  0  0
    6.4599   -2.9312   -4.7180 C   0  0  0  0  0  0  0  0  0  0  0  0
    7.9195   -3.2531   -4.3812 C   0  0  0  0  0  0  0  0  0  0  0  0
    8.5082   -4.3217   -5.3070 C   0  0  0  0  0  0  0  0  0  0  0  0
    7.8948   -5.6411   -5.0873 N   0  0  0  0  0  0  0  0  0  0  0  0
    8.2613   -6.7632   -5.7307 C   0  0  0  0  0  0  0  0  0  0  0  0
    9.2245   -6.7681   -6.6548 N   0  0  0  0  0  0  0  0  0  0  0  0
    7.6477   -7.9152   -5.4423 N   0  0  0  0  0  4  0  0  0  0  0  0
    9.0228    8.9603    1.9732 C   0  0  0  0  0  0  0  0  0  0  0  0
    9.0893   10.4180    2.4534 C   0  0  0  0  0  0  0  0  0  0  0  0
    8.6775   10.5921    3.9154 C   0  0  0  0  0  0  0  0  0  0  0  0
    8.8185   12.0558    4.3225 C   0  0  0  0  0  0  0  0  0  0  0  0
    8.4533   12.2157    5.7482 N   0  0  0  0  0  4  0  0  0  0  0  0
   19.4760   16.6877   -4.2562 H   0  0  0  0  0  0  0  0  0  0  0  0
   19.4389   16.4588   -1.4752 H   0  0  0  0  0  0  0  0  0  0  0  0
   20.4846   18.4697   -2.2713 H   0  0  0  0  0  0  0  0  0  0  0  0
   19.8461   19.4672   -4.0971 H   0  0  0  0  0  0  0  0  0  0  0  0
   18.1299   20.0380   -2.1869 H   0  0  0  0  0  0  0  0  0  0  0  0
   17.5116   18.2403    0.8661 H   0  0  0  0  0  0  0  0  0  0  0  0
   21.6846   22.0216    3.5425 H   0  0  0  0  0  0  0  0  0  0  0  0
   20.4081   20.8380    3.8508 H   0  0  0  0  0  0  0  0  0  0  0  0
   22.1510   22.3498   -0.9195 H   0  0  0  0  0  0  0  0  0  0  0  0
   16.9987   16.9770   -3.2469 H   0  0  0  0  0  0  0  0  0  0  0  0
   17.7391   14.5577   -2.8897 H   0  0  0  0  0  0  0  0  0  0  0  0
   17.3273   12.5441   -1.9164 H   0  0  0  0  0  0  0  0  0  0  0  0
   17.0638   13.3739   -0.3692 H   0  0  0  0  0  0  0  0  0  0  0  0
   14.7198   13.9551   -1.1107 H   0  0  0  0  0  0  0  0  0  0  0  0
   14.9889   13.0916   -2.6177 H   0  0  0  0  0  0  0  0  0  0  0  0
   15.2260   11.7735    0.1410 H   0  0  0  0  0  0  0  0  0  0  0  0
   15.2667   10.9561   -1.4229 H   0  0  0  0  0  0  0  0  0  0  0  0
   12.9062   12.5315   -0.2691 H   0  0  0  0  0  0  0  0  0  0  0  0
   12.9086   11.7966   -1.8665 H   0  0  0  0  0  0  0  0  0  0  0  0
   13.1951    9.5386   -0.8586 H   0  0  0  0  0  0  0  0  0  0  0  0
   13.2697   10.2545    0.7611 H   0  0  0  0  0  0  0  0  0  0  0  0
   11.5336    8.3629    0.5558 H   0  0  0  0  0  0  0  0  0  0  0  0
    8.8707    9.5355   -0.1052 H   0  0  0  0  0  0  0  0  0  0  0  0
    8.5492    8.2523   -1.8030 H   0  0  0  0  0  0  0  0  0  0  0  0
    8.7177    6.5245   -3.2094 H   0  0  0  0  0  0  0  0  0  0  0  0
    9.8362    5.7477   -2.0753 H   0  0  0  0  0  0  0  0  0  0  0  0
    7.9730    4.7284   -0.8345 H   0  0  0  0  0  0  0  0  0  0  0  0
    6.7837    5.6188   -1.7781 H   0  0  0  0  0  0  0  0  0  0  0  0
    8.7928    3.7028   -3.0719 H   0  0  0  0  0  0  0  0  0  0  0  0
    7.3758    4.4343   -3.8241 H   0  0  0  0  0  0  0  0  0  0  0  0
    7.3510    2.4052   -1.5284 H   0  0  0  0  0  0  0  0  0  0  0  0
    5.9033    3.1388   -2.2155 H   0  0  0  0  0  0  0  0  0  0  0  0
    6.3013    2.1157   -4.3938 H   0  0  0  0  0  0  0  0  0  0  0  0
    7.9197    1.5745   -3.9138 H   0  0  0  0  0  0  0  0  0  0  0  0
    6.5145   -0.2583   -5.0183 H   0  0  0  0  0  0  0  0  0  0  0  0
    6.0728   -2.1313   -2.7425 H   0  0  0  0  0  0  0  0  0  0  0  0
    4.0832   -2.5809   -2.0818 H   0  0  0  0  0  0  0  0  0  0  0  0
    1.7401   -2.0426   -3.8673 H   0  0  0  0  0  0  0  0  0  0  0  0
    0.9495   -5.5030   -4.2972 H   0  0  0  0  0  0  0  0  0  0  0  0
    0.3637   -3.8836   -4.4969 H   0  0  0  0  0  0  0  0  0  0  0  0
    1.8884   -2.8481   -0.9010 H   0  0  0  0  0  0  0  0  0  0  0  0
    0.3962   -2.7057   -1.8181 H   0  0  0  0  0  0  0  0  0  0  0  0
    0.8514   -0.2818   -2.2259 H   0  0  0  0  0  0  0  0  0  0  0  0
    2.3828   -0.4156   -1.3553 H   0  0  0  0  0  0  0  0  0  0  0  0
    1.0856   -1.1443    0.7071 H   0  0  0  0  0  0  0  0  0  0  0  0
    0.8025    0.5370    0.1587 H   0  0  0  0  0  0  0  0  0  0  0  0
   -1.1866   -1.0889   -1.0333 H   0  0  0  0  0  0  0  0  0  0  0  0
   -1.8789    0.0334    2.8085 H   0  0  0  0  0  0  0  0  0  0  0  0
   -0.2574    0.0828    2.2314 H   0  0  0  0  0  0  0  0  0  0  0  0
   -3.6137   -0.6527    1.4244 H   0  0  0  0  0  0  0  0  0  0  0  0
   -3.3125   -1.1668   -0.1880 H   0  0  0  0  0  0  0  0  0  0  0  0
    5.8661   -3.8516   -4.6491 H   0  0  0  0  0  0  0  0  0  0  0  0
    6.3926   -2.5978   -5.7615 H   0  0  0  0  0  0  0  0  0  0  0  0
    7.9893   -3.5963   -3.3420 H   0  0  0  0  0  0  0  0  0  0  0  0
    8.5247   -2.3438   -4.4675 H   0  0  0  0  0  0  0  0  0  0  0  0
    8.3577   -4.0365   -6.3534 H   0  0  0  0  0  0  0  0  0  0  0  0
    9.5804   -4.4129   -5.0996 H   0  0  0  0  0  0  0  0  0  0  0  0
    7.1616   -5.7343   -4.3954 H   0  0  0  0  0  0  0  0  0  0  0  0
    9.5038   -7.6167   -7.1284 H   0  0  0  0  0  0  0  0  0  0  0  0
    9.7154   -5.9225   -6.9135 H   0  0  0  0  0  0  0  0  0  0  0  0
    7.9116   -8.7788   -5.8985 H   0  0  0  0  0  0  0  0  0  0  0  0
    6.9048   -7.9723   -4.7576 H   0  0  0  0  0  0  0  0  0  0  0  0
    9.6608    8.3344    2.6107 H   0  0  0  0  0  0  0  0  0  0  0  0
    7.9975    8.5866    2.0851 H   0  0  0  0  0  0  0  0  0  0  0  0
   10.1102   10.7974    2.3380 H   0  0  0  0  0  0  0  0  0  0  0  0
    8.4419   11.0367    1.8195 H   0  0  0  0  0  0  0  0  0  0  0  0
    9.3090    9.9628    4.5544 H   0  0  0  0  0  0  0  0  0  0  0  0
    7.6424   10.2595    4.0541 H   0  0  0  0  0  0  0  0  0  0  0  0
    8.1504   12.7035    3.7480 H   0  0  0  0  0  0  0  0  0  0  0  0
    9.8490   12.4104    4.2198 H   0  0  0  0  0  0  0  0  0  0  0  0
    9.0592   11.6563    6.3634 H   0  0  0  0  0  0  0  0  0  0  0  0
    8.5536   13.1977    6.0394 H   0  0  0  0  0  0  0  0  0  0  0  0
    7.4792   11.9437    5.9304 H   0  0  0  0  0  0  0  0  0  0  0  0
 68  1  1  0
  1  2  1  0
  2 69  1  1
  2  3  1  0
  3 70  1  1
  3  4  1  0
  4 71  1  0
  3  5  1  0
  5 72  1  6
  5  6  1  0
  6  7  1  0
  7 73  1  0
  7  8  2  0
  8  9  1  0
  9 10  1  0
 10 11  1  0
 11 74  1  0
 11 75  1  0
 10 12  2  0
 12 13  1  0
 13 76  1  0
 13 14  2  0
  9 15  2  0
  6 15  1  0
 14 15  1  0
  5 16  1  0
  2 17  1  0
 16 17  1  0
 17 77  1  6
 17 18  1  0
 18 19  2  0
 18 20  1  0
 20 78  1  0
 20 21  1  0
 21 79  1  0
 21 80  1  0
 21 22  1  0
 22 81  1  0
 22 82  1  0
 22 23  1  0
 23 83  1  0
 23 84  1  0
 23 24  1  0
 24 85  1  0
 24 86  1  0
 24 25  1  0
 25 87  1  0
 25 88  1  0
 25 26  1  0
 26 27  2  0
 26 28  1  0
 28 89  1  0
 28 29  1  0
 29 90  1  6
 29 30  1  0
 30 31  2  0
 30 32  1  0
 32 91  1  0
 32 33  1  0
 33 92  1  0
 33 93  1  0
 33 34  1  0
 34 94  1  0
 34 95  1  0
 34 35  1  0
 35 96  1  0
 35 97  1  0
 35 36  1  0
 36 98  1  0
 36 99  1  0
 36 37  1  0
 37100  1  0
 37101  1  0
 37 38  1  0
 38 39  2  0
 38 40  1  0
 40102  1  0
 40 41  1  0
 41103  1  1
 41 42  1  0
 42 43  2  0
 42 44  1  0
 44104  1  0
 44 45  1  0
 45105  1  6
 45 46  1  0
 46 47  2  0
 46 48  1  0
 48106  1  0
 48107  1  0
 45 49  1  0
 49108  1  0
 49109  1  0
 49 50  1  0
 50110  1  0
 50111  1  0
 50 51  1  0
 51112  1  0
 51113  1  0
 51 52  1  0
 52114  1  0
 52 53  1  0
 53 54  1  0
 54115  1  0
 54116  1  0
 53 55  2  0
 55117  1  0
 55118  1  0
 41 56  1  0
 56119  1  0
 56120  1  0
 56 57  1  0
 57121  1  0
 57122  1  0
 57 58  1  0
 58123  1  0
 58124  1  0
 58 59  1  0
 59125  1  0
 59 60  1  0
 60 61  1  0
 61126  1  0
 61127  1  0
 60 62  2  0
 62128  1  0
 62129  1  0
 29 63  1  0
 63130  1  0
 63131  1  0
 63 64  1  0
 64132  1  0
 64133  1  0
 64 65  1  0
 65134  1  0
 65135  1  0
 65 66  1  0
 66136  1  0
 66137  1  0
 66 67  1  0
 67138  1  0
 67139  1  0
 67140  1  0
M  CHG  3  55   1  62   1  67   1
M  END
>  <conformer_energy>  (1) 
-255.87

>  <ligand_smiles>  (1) 
NC(=[NH2+])NCCC[C@@H](NC(=O)[C@@H](CCCNC(N)=[NH2+])NC(=O)CCCCCNC(=O)[C@@H](CCCC[NH3+])NC(=O)CCCCCNC(=O)[C@H]1O[C@@H](n2cnc3c(N)ncnc32)[C@H](O)[C@@H]1O)C(N)=O

>  <ligand_conf_name>  (1) 
MOL_0_isomer_0_conf_0

>  <ligand_molecule_name>  (1) 
MOL_0_isomer_0

$$$$
