MOL_0_isomer_0_conf_0
     RDKit          3D

 23 22  0  0  0  0  0  0  0  0999 V2000
    4.2355    2.3790    2.6628 C   0  0  0  0  0  0  0  0  0  0  0  0
    3.9581    2.3233    1.1683 C   0  0  0  0  0  0  0  0  0  0  0  0
    4.4408    1.0280    0.5061 C   0  0  0  0  0  0  0  0  0  0  0  0
    3.7799   -0.2728    1.0035 C   0  0  2  0  0  0  0  0  0  0  0  0
    4.3810   -1.5462    0.3576 C   0  0  0  0  0  0  0  0  0  0  0  0
    5.5092   -1.4108   -0.2031 O   0  0  0  0  0  0  0  0  0  0  0  0
    3.7426   -2.6206    0.5622 O   0  0  0  0  0  1  0  0  0  0  0  0
    2.2395   -0.2474    1.0151 C   0  0  0  0  0  0  0  0  0  0  0  0
    1.5457    0.2525   -0.2435 C   0  0  0  0  0  0  0  0  0  0  0  0
    2.0311    0.2437   -1.3741 O   0  0  0  0  0  0  0  0  0  0  0  0
    0.1101    0.8156   -0.1019 C   0  0  0  0  0  0  0  0  0  0  0  0
   -0.4093    0.7546    1.0637 O   0  0  0  0  0  0  0  0  0  0  0  0
   -0.4519    1.3199   -1.1308 O   0  0  0  0  0  1  0  0  0  0  0  0
    3.9570    3.3605    3.0597 H   0  0  0  0  0  0  0  0  0  0  0  0
    3.6596    1.6259    3.2080 H   0  0  0  0  0  0  0  0  0  0  0  0
    5.2982    2.2194    2.8710 H   0  0  0  0  0  0  0  0  0  0  0  0
    4.4756    3.1643    0.6906 H   0  0  0  0  0  0  0  0  0  0  0  0
    2.8897    2.4789    0.9868 H   0  0  0  0  0  0  0  0  0  0  0  0
    5.5265    0.9604    0.6574 H   0  0  0  0  0  0  0  0  0  0  0  0
    4.3046    1.1201   -0.5782 H   0  0  0  0  0  0  0  0  0  0  0  0
    4.0800   -0.3921    2.0558 H   0  0  0  0  0  0  0  0  0  0  0  0
    1.9308    0.4041    1.8413 H   0  0  0  0  0  0  0  0  0  0  0  0
    1.8252   -1.2378    1.2336 H   0  0  0  0  0  0  0  0  0  0  0  0
 14  1  1  0
  1 15  1  0
  1 16  1  0
  1  2  1  0
  2 17  1  0
  2 18  1  0
  2  3  1  0
  3 19  1  0
  3 20  1  0
  3  4  1  0
  4 21  1  1
  4  5  1  0
  5  6  2  0
  5  7  1  0
  4  8  1  0
  8 22  1  0
  8 23  1  0
  8  9  1  0
  9 10  2  0
  9 11  1  0
 11 12  2  0
 11 13  1  0
M  CHG  2   7  -1  13  -1
M  END
>  <conformer_energy>  (1) 
139.16

>  <ligand_smiles>  (1) 
CCC[C@@H](CC(=O)C(=O)[O-])C(=O)[O-]

>  <ligand_conf_name>  (1) 
MOL_0_isomer_0_conf_0

>  <ligand_molecule_name>  (1) 
MOL_0_isomer_0

$$$$
