1S19 - prepared_ligand_conf_0
     RDKit          3D

 70 73  0  0  0  0  0  0  0  0999 V2000
   15.6517   -1.0478    1.7906 O   0  0  0  0  0  0  0  0  0  0  0  0
   14.6107   -0.9379    0.8167 C   0  0  2  0  0  0  0  0  0  0  0  0
   13.4913    0.0007    1.3101 C   0  0  0  0  0  0  0  0  0  0  0  0
   12.3484   -0.7150    2.0179 C   0  0  0  0  0  0  0  0  0  0  0  0
   11.1091   -0.1801    2.0076 C   0  0  0  0  0  0  0  0  0  0  0  0
    9.9001   -0.7777    2.5411 C   0  0  0  0  0  0  0  0  0  0  0  0
    8.6792   -0.2115    2.6097 C   0  0  0  0  0  0  0  0  0  0  0  0
    8.3198    1.1993    2.1726 C   0  0  0  0  0  0  0  0  0  0  0  0
    7.1025    1.2337    1.2395 C   0  0  0  0  0  0  0  0  0  0  0  0
    5.9034    0.4358    1.7768 C   0  0  0  0  0  0  0  0  0  0  0  0
    6.2901   -1.0075    2.1689 C   0  0  2  0  0  0  0  0  0  0  0  0
    6.6646   -1.8027    0.8988 C   0  0  0  0  0  0  0  0  0  0  0  0
    5.2469   -1.7547    3.0590 C   0  0  1  0  0  0  0  0  0  0  0  0
    3.9024   -2.2914    2.4875 C   0  0  1  0  0  0  0  0  0  0  0  0
    3.0605   -1.1584    1.9317 C   0  0  0  0  0  0  0  0  0  0  0  0
    2.5739   -1.0293    0.6848 C   0  0  0  0  0  0  0  0  0  0  0  0
    1.7529    0.1410    0.2209 C   0  0  1  0  0  0  0  0  0  0  0  0
    2.4352    0.7438   -0.8722 O   0  0  0  0  0  0  0  0  0  0  0  0
    0.3676   -0.2305   -0.2295 C   0  0  0  0  0  0  0  0  0  0  0  0
   -0.7834   -0.2217    0.7473 C   0  0  0  0  0  0  0  0  0  0  0  0
   -0.7078    0.8233   -0.3313 C   0  0  0  0  0  0  0  0  0  0  0  0
    3.9840   -3.5197    1.5721 C   0  0  0  0  0  0  0  0  0  0  0  0
    6.0931   -2.8172    3.8089 C   0  0  0  0  0  0  0  0  0  0  0  0
    7.5531   -2.3414    3.7457 C   0  0  0  0  0  0  0  0  0  0  0  0
    7.4680   -0.9214    3.1845 C   0  0  1  0  0  0  0  0  0  0  0  0
   12.7127   -2.0006    2.6047 C   0  0  0  0  0  0  0  0  0  0  0  0
   12.5633   -2.2527    3.9164 C   0  0  0  0  0  0  0  0  0  0  0  0
   13.3910   -2.9871    1.6732 C   0  0  1  0  0  0  0  0  0  0  0  0
   12.4271   -3.9249    1.1980 O   0  0  0  0  0  0  0  0  0  0  0  0
   14.0699   -2.3221    0.4689 C   0  0  0  0  0  0  0  0  0  0  0  0
   15.2439   -1.1297    2.6713 H   0  0  0  0  0  0  0  0  0  0  0  0
   15.0775   -0.4974   -0.0711 H   0  0  0  0  0  0  0  0  0  0  0  0
   13.9100    0.7564    1.9854 H   0  0  0  0  0  0  0  0  0  0  0  0
   13.0855    0.5261    0.4357 H   0  0  0  0  0  0  0  0  0  0  0  0
   10.9929    0.7876    1.5264 H   0  0  0  0  0  0  0  0  0  0  0  0
   10.0147   -1.7929    2.9129 H   0  0  0  0  0  0  0  0  0  0  0  0
    9.1449    1.7158    1.6762 H   0  0  0  0  0  0  0  0  0  0  0  0
    8.0933    1.7871    3.0720 H   0  0  0  0  0  0  0  0  0  0  0  0
    6.7976    2.2757    1.0851 H   0  0  0  0  0  0  0  0  0  0  0  0
    7.3895    0.8505    0.2528 H   0  0  0  0  0  0  0  0  0  0  0  0
    5.1193    0.4383    1.0132 H   0  0  0  0  0  0  0  0  0  0  0  0
    5.4957    0.9637    2.6485 H   0  0  0  0  0  0  0  0  0  0  0  0
    5.8810   -1.7109    0.1397 H   0  0  0  0  0  0  0  0  0  0  0  0
    6.8139   -2.8676    1.1014 H   0  0  0  0  0  0  0  0  0  0  0  0
    7.5884   -1.4415    0.4365 H   0  0  0  0  0  0  0  0  0  0  0  0
    4.9469   -1.0312    3.8367 H   0  0  0  0  0  0  0  0  0  0  0  0
    3.3398   -2.6464    3.3648 H   0  0  0  0  0  0  0  0  0  0  0  0
    2.8377   -0.3682    2.6495 H   0  0  0  0  0  0  0  0  0  0  0  0
    2.7715   -1.7941   -0.0600 H   0  0  0  0  0  0  0  0  0  0  0  0
    1.6983    0.9013    1.0089 H   0  0  0  0  0  0  0  0  0  0  0  0
    2.4518    0.0933   -1.5926 H   0  0  0  0  0  0  0  0  0  0  0  0
    0.3723   -1.0068   -0.9870 H   0  0  0  0  0  0  0  0  0  0  0  0
   -0.5958    0.0892    1.7695 H   0  0  0  0  0  0  0  0  0  0  0  0
   -1.5344   -0.9982    0.6525 H   0  0  0  0  0  0  0  0  0  0  0  0
   -1.4048    0.7560   -1.1581 H   0  0  0  0  0  0  0  0  0  0  0  0
   -0.4615    1.8396   -0.0435 H   0  0  0  0  0  0  0  0  0  0  0  0
    2.9759   -3.8791    1.3291 H   0  0  0  0  0  0  0  0  0  0  0  0
    4.4875   -3.3183    0.6255 H   0  0  0  0  0  0  0  0  0  0  0  0
    4.4924   -4.3571    2.0559 H   0  0  0  0  0  0  0  0  0  0  0  0
    6.0279   -3.8152    3.3704 H   0  0  0  0  0  0  0  0  0  0  0  0
    5.7552   -2.9002    4.8483 H   0  0  0  0  0  0  0  0  0  0  0  0
    8.0247   -2.3624    4.7338 H   0  0  0  0  0  0  0  0  0  0  0  0
    8.1253   -3.0094    3.0921 H   0  0  0  0  0  0  0  0  0  0  0  0
    7.1497   -0.2925    4.0336 H   0  0  0  0  0  0  0  0  0  0  0  0
   12.8703   -3.2028    4.3442 H   0  0  0  0  0  0  0  0  0  0  0  0
   12.1236   -1.5261    4.5937 H   0  0  0  0  0  0  0  0  0  0  0  0
   14.1470   -3.5548    2.2293 H   0  0  0  0  0  0  0  0  0  0  0  0
   11.6026   -3.4314    1.0455 H   0  0  0  0  0  0  0  0  0  0  0  0
   14.8853   -2.9728    0.1286 H   0  0  0  0  0  0  0  0  0  0  0  0
   13.3684   -2.2472   -0.3723 H   0  0  0  0  0  0  0  0  0  0  0  0
 31  1  1  0
  1  2  1  0
  2 32  1  6
  2  3  1  0
  3 33  1  0
  3 34  1  0
  3  4  1  0
  4  5  2  0
  5 35  1  0
  5  6  1  0
  6 36  1  0
  6  7  2  0
  7  8  1  0
  8 37  1  0
  8 38  1  0
  8  9  1  0
  9 39  1  0
  9 40  1  0
  9 10  1  0
 10 41  1  0
 10 42  1  0
 10 11  1  0
 11 12  1  6
 12 43  1  0
 12 44  1  0
 12 45  1  0
 11 13  1  0
 13 46  1  1
 13 14  1  0
 14 47  1  1
 14 15  1  0
 15 48  1  0
 15 16  2  0
 16 49  1  0
 16 17  1  0
 17 50  1  1
 17 18  1  0
 18 51  1  0
 17 19  1  0
 19 52  1  0
 19 20  1  0
 20 53  1  0
 20 54  1  0
 19 21  1  0
 20 21  1  0
 21 55  1  0
 21 56  1  0
 14 22  1  0
 22 57  1  0
 22 58  1  0
 22 59  1  0
 13 23  1  0
 23 60  1  0
 23 61  1  0
 23 24  1  0
 24 62  1  0
 24 63  1  0
  7 25  1  0
 11 25  1  0
 24 25  1  0
 25 64  1  1
  4 26  1  0
 26 27  2  0
 27 65  1  0
 27 66  1  0
 26 28  1  0
 28 67  1  1
 28 29  1  0
 29 68  1  0
  2 30  1  0
 28 30  1  0
 30 69  1  0
 30 70  1  0
M  END
>  <conformer_energy>  (1) 
95.87

>  <ligand_smiles>  (1) 
C=C1/C(=C\C=C2/CCC[C@]3(C)[C@@H]([C@H](C)/C=C/[C@@H](O)C4CC4)CC[C@@H]23)C[C@@H](O)C[C@@H]1O

>  <ligand_conf_name>  (1) 
1S19 - prepared_ligand_conf_0

>  <ligand_molecule_name>  (1) 
1S19 - prepared_ligand

>  <fragInfo>  (1) 
1 2 3 4 5 6 7 8 9 10 11 12 13 23 24 25 26 27 28 29 30 31 32 33 34 35 36 37 38 39 40 41 42 43 44 45 46 60 61 62 63 64 65 66 67 68 69 70
14 22 47 57 58 59
15 16 48 49
17 18 50 51
19 20 21 52 53 54 55 56


>  <torsionInfo>  (1) 
13 14 0 1
14 15 1 2
16 17 2 3
17 19 3 4


>  <atomInfo>  (1) 
1  -0.392670 OA
2  0.060820  C 
3  -0.001206 C 
4  -0.040239 C 
5  -0.058630 C 
6  -0.062477 C 
7  -0.066548 C 
8  -0.031397 C 
9  -0.048985 C 
10 -0.046695 C 
11 -0.022628 C 
12 -0.058782 C 
13 -0.029372 C 
14 -0.022721 C 
15 -0.082837 C 
16 -0.059657 C 
17 0.074867  C 
18 -0.388759 OA
19 -0.011603 C 
20 -0.047293 C 
21 -0.047293 C 
22 -0.058721 C 
23 -0.048762 C 
24 -0.045844 C 
25 -0.014313 C 
26 -0.023388 C 
27 -0.092953 C 
28 0.081130  C 
29 -0.388330 OA
30 0.003758  C 
31 0.210463  HD
32 0.060500  H 
33 0.034276  H 
34 0.034276  H 
35 0.062572  H 
36 0.062243  H 
37 0.031272  H 
38 0.031272  H 
39 0.027000  H 
40 0.027000  H 
41 0.027255  H 
42 0.027255  H 
43 0.023634  H 
44 0.023634  H 
45 0.023634  H 
46 0.031444  H 
47 0.034611  H 
48 0.057640  H 
49 0.059989  H 
50 0.064880  H 
51 0.210924  HD
52 0.033262  H 
53 0.027056  H 
54 0.027056  H 
55 0.027056  H 
56 0.027056  H 
57 0.023645  H 
58 0.023645  H 
59 0.023645  H 
60 0.027000  H 
61 0.027000  H 
62 0.027296  H 
63 0.027296  H 
64 0.035461  H 
65 0.054170  H 
66 0.054170  H 
67 0.065313  H 
68 0.210942  HD
69 0.032340  H 
70 0.032340  H 


$$$$
