MOL_0_isomer_0_conf_0
     RDKit          3D

 73 76  0  0  0  0  0  0  0  0999 V2000
    3.4386  -10.0787    3.0425 C   0  0  0  0  0  0  0  0  0  0  0  0
    2.9726   -8.8240    3.1817 N   0  0  0  0  0  0  0  0  0  0  0  0
    3.2744   -8.2111    4.3299 C   0  0  0  0  0  0  0  0  0  0  0  0
    2.7984   -6.9567    4.6816 N   0  0  0  0  0  0  0  0  0  0  0  0
    2.0861   -5.9533    4.0293 C   0  0  0  0  0  0  0  0  0  0  0  0
    1.6604   -6.0383    2.6993 C   0  0  0  0  0  0  0  0  0  0  0  0
    0.9981   -4.9725    2.0779 C   0  0  0  0  0  0  0  0  0  0  0  0
    0.7947   -3.7936    2.7846 C   0  0  0  0  0  0  0  0  0  0  0  0
    0.1939   -2.7195    2.1888 O   0  0  0  0  0  0  0  0  0  0  0  0
    1.1426   -2.0306    1.3587 C   0  0  0  0  0  0  0  0  0  0  0  0
    0.5888   -0.6196    1.1359 C   0  0  0  0  0  0  0  0  0  0  0  0
   -0.9069   -0.6933    0.9043 N   0  0  0  0  0  4  0  0  0  0  0  0
   -1.6505    0.5689    1.2446 C   0  0  0  0  0  0  0  0  0  0  0  0
   -2.8331    0.5538    0.2947 C   0  0  0  0  0  0  0  0  0  0  0  0
   -2.2399   -0.0271   -0.9705 C   0  0  0  0  0  0  0  0  0  0  0  0
   -1.3405   -1.1439   -0.4734 C   0  0  0  0  0  0  0  0  0  0  0  0
    1.1891   -3.6841    4.1138 C   0  0  0  0  0  0  0  0  0  0  0  0
    1.8244   -4.7625    4.7317 C   0  0  0  0  0  0  0  0  0  0  0  0
    4.0478   -8.7706    5.2571 N   0  0  0  0  0  0  0  0  0  0  0  0
    4.5173  -10.0149    5.1163 C   0  0  0  0  0  0  0  0  0  0  0  0
    5.2875  -10.5762    6.1538 N   0  0  0  0  0  0  0  0  0  0  0  0
    5.6360  -10.0427    7.4206 C   0  0  0  0  0  0  0  0  0  0  0  0
    6.6193  -10.6822    8.1804 C   0  0  0  0  0  0  0  0  0  0  0  0
    7.0240  -10.1500    9.4058 C   0  0  0  0  0  0  0  0  0  0  0  0
    6.4557   -8.9659    9.8914 C   0  0  0  0  0  0  0  0  0  0  0  0
    7.0726   -8.3705   11.4045 Cl  0  0  0  0  0  0  0  0  0  0  0  0
    5.4346   -8.3032    9.1922 C   0  0  0  0  0  0  0  0  0  0  0  0
    4.8984   -7.1442    9.6585 N   0  0  0  0  0  2  0  0  0  0  0  0
    3.4368   -6.6206    9.2688 S   0  0  0  0  0  6  0  0  0  0  0  0
    3.3126   -5.9652    7.9614 O   0  0  0  0  0  0  0  0  0  0  0  0
    2.3339   -7.5274    9.5917 O   0  0  0  0  0  0  0  0  0  0  0  0
    3.2547   -5.2480   10.4898 C   0  0  0  0  0  0  0  0  0  0  0  0
    4.1960   -4.0838   10.1353 C   0  0  0  0  0  0  0  0  0  0  0  0
    3.5589   -5.7458   11.9173 C   0  0  0  0  0  0  0  0  0  0  0  0
    1.7955   -4.7488   10.4548 C   0  0  0  0  0  0  0  0  0  0  0  0
    5.0334   -8.8989    7.9756 C   0  0  0  0  0  0  0  0  0  0  0  0
    4.2104  -10.7409    3.9798 C   0  0  0  0  0  0  0  0  0  0  0  0
    4.6467  -12.1540    3.7512 C   0  0  0  0  0  0  0  0  0  0  0  0
    3.1509  -10.5611    2.1107 H   0  0  0  0  0  0  0  0  0  0  0  0
    3.0220   -6.7919    5.6618 H   0  0  0  0  0  0  0  0  0  0  0  0
    1.8481   -6.9434    2.1247 H   0  0  0  0  0  0  0  0  0  0  0  0
    0.6662   -5.0733    1.0504 H   0  0  0  0  0  0  0  0  0  0  0  0
    1.2255   -2.5546    0.4000 H   0  0  0  0  0  0  0  0  0  0  0  0
    2.1296   -1.9691    1.8275 H   0  0  0  0  0  0  0  0  0  0  0  0
    1.0525   -0.1104    0.2833 H   0  0  0  0  0  0  0  0  0  0  0  0
    0.7269   -0.0211    2.0462 H   0  0  0  0  0  0  0  0  0  0  0  0
   -1.2259   -1.4265    1.5706 H   0  0  0  0  0  0  0  0  0  0  0  0
   -1.9412    0.5253    2.2925 H   0  0  0  0  0  0  0  0  0  0  0  0
   -0.9844    1.4171    1.0602 H   0  0  0  0  0  0  0  0  0  0  0  0
   -3.2560    1.5532    0.1516 H   0  0  0  0  0  0  0  0  0  0  0  0
   -3.6320   -0.0980    0.6780 H   0  0  0  0  0  0  0  0  0  0  0  0
   -3.0156   -0.3919   -1.6467 H   0  0  0  0  0  0  0  0  0  0  0  0
   -1.6443    0.7290   -1.4977 H   0  0  0  0  0  0  0  0  0  0  0  0
   -0.4708   -1.3132   -1.1145 H   0  0  0  0  0  0  0  0  0  0  0  0
   -1.8871   -2.0851   -0.3354 H   0  0  0  0  0  0  0  0  0  0  0  0
    1.0462   -2.7661    4.6759 H   0  0  0  0  0  0  0  0  0  0  0  0
    2.1473   -4.6649    5.7735 H   0  0  0  0  0  0  0  0  0  0  0  0
    5.8915  -11.3248    5.8653 H   0  0  0  0  0  0  0  0  0  0  0  0
    7.0856  -11.5911    7.8247 H   0  0  0  0  0  0  0  0  0  0  0  0
    7.7921  -10.6534    9.9804 H   0  0  0  0  0  0  0  0  0  0  0  0
    5.2489   -4.3909   10.1210 H   0  0  0  0  0  0  0  0  0  0  0  0
    3.9653   -3.6660    9.1475 H   0  0  0  0  0  0  0  0  0  0  0  0
    4.0955   -3.2686   10.8609 H   0  0  0  0  0  0  0  0  0  0  0  0
    4.6211   -5.9905   12.0359 H   0  0  0  0  0  0  0  0  0  0  0  0
    3.3216   -4.9775   12.6614 H   0  0  0  0  0  0  0  0  0  0  0  0
    2.9823   -6.6401   12.1680 H   0  0  0  0  0  0  0  0  0  0  0  0
    1.0984   -5.5229   10.8046 H   0  0  0  0  0  0  0  0  0  0  0  0
    1.6685   -3.8800   11.1114 H   0  0  0  0  0  0  0  0  0  0  0  0
    1.4858   -4.4613    9.4404 H   0  0  0  0  0  0  0  0  0  0  0  0
    4.2140   -8.4240    7.4458 H   0  0  0  0  0  0  0  0  0  0  0  0
    4.3873  -12.5007    2.7432 H   0  0  0  0  0  0  0  0  0  0  0  0
    4.1651  -12.8196    4.4755 H   0  0  0  0  0  0  0  0  0  0  0  0
    5.7341  -12.2324    3.8463 H   0  0  0  0  0  0  0  0  0  0  0  0
 39  1  1  0
  1  2  2  0
  2  3  1  0
  3  4  1  0
  4 40  1  0
  4  5  1  0
  5  6  2  0
  6 41  1  0
  6  7  1  0
  7 42  1  0
  7  8  2  0
  8  9  1  0
  9 10  1  0
 10 43  1  0
 10 44  1  0
 10 11  1  0
 11 45  1  0
 11 46  1  0
 11 12  1  0
 12 47  1  0
 12 13  1  0
 13 48  1  0
 13 49  1  0
 13 14  1  0
 14 50  1  0
 14 51  1  0
 14 15  1  0
 15 52  1  0
 15 53  1  0
 12 16  1  0
 15 16  1  0
 16 54  1  0
 16 55  1  0
  8 17  1  0
 17 56  1  0
  5 18  1  0
 17 18  2  0
 18 57  1  0
  3 19  2  0
 19 20  1  0
 20 21  1  0
 21 58  1  0
 21 22  1  0
 22 23  2  0
 23 59  1  0
 23 24  1  0
 24 60  1  0
 24 25  2  0
 25 26  1  0
 25 27  1  0
 27 28  1  0
 28 29  1  0
 29 30  2  0
 29 31  2  0
 29 32  1  0
 32 33  1  0
 33 61  1  0
 33 62  1  0
 33 63  1  0
 32 34  1  0
 34 64  1  0
 34 65  1  0
 34 66  1  0
 32 35  1  0
 35 67  1  0
 35 68  1  0
 35 69  1  0
 22 36  1  0
 27 36  2  0
 36 70  1  0
  1 37  1  0
 20 37  2  0
 37 38  1  0
 38 71  1  0
 38 72  1  0
 38 73  1  0
M  CHG  2  12   1  28  -1
M  END
>  <conformer_energy>  (1) 
-10.23

>  <ligand_smiles>  (1) 
Cc1cnc(Nc2ccc(OCC[NH+]3CCCC3)cc2)nc1Nc1ccc(Cl)c([N-]S(=O)(=O)C(C)(C)C)c1

>  <ligand_conf_name>  (1) 
MOL_0_isomer_0_conf_0

>  <ligand_molecule_name>  (1) 
MOL_0_isomer_0

$$$$
