MOL_0_isomer_0_conf_0
     RDKit          3D

 35 36  0  0  0  0  0  0  0  0999 V2000
    3.4086    2.1876    2.2976 C   0  0  0  0  0  0  0  0  0  0  0  0
    3.0570    3.4755    1.8909 C   0  0  0  0  0  0  0  0  0  0  0  0
    2.0943    3.6751    0.8889 C   0  0  0  0  0  0  0  0  0  0  0  0
    1.7424    5.0204    0.4509 C   0  0  0  0  0  0  0  0  0  0  0  0
    1.2595    6.0375    1.2717 C   0  0  0  0  0  0  0  0  0  0  0  0
    0.9715    7.2843    0.7166 C   0  0  0  0  0  0  0  0  0  0  0  0
    0.4040    8.3872    1.5636 C   0  0  0  0  0  0  0  0  0  0  0  0
    1.1642    7.4681   -0.6563 C   0  0  0  0  0  0  0  0  0  0  0  0
    1.6695    6.4307   -1.4405 C   0  0  0  0  0  0  0  0  0  0  0  0
    1.8671    6.5669   -2.7913 N   0  0  0  0  0  0  0  0  0  0  0  0
    1.9310    5.2560   -0.8574 N   0  0  0  0  0  4  0  0  0  0  0  0
    1.4838    2.5438    0.3153 C   0  0  0  0  0  0  0  0  0  0  0  0
    1.8325    1.2428    0.7171 C   0  0  0  0  0  0  0  0  0  0  0  0
    1.1515    0.0393    0.1030 C   0  0  0  0  0  0  0  0  0  0  0  0
   -0.1979   -0.1818    0.6118 N   0  0  0  0  0  0  0  0  0  0  0  0
   -0.2102   -0.8114    1.9253 C   0  0  0  0  0  0  0  0  0  0  0  0
    2.8015    1.0783    1.7128 C   0  0  0  0  0  0  0  0  0  0  0  0
    4.1561    2.0451    3.0765 H   0  0  0  0  0  0  0  0  0  0  0  0
    3.5543    4.3191    2.3691 H   0  0  0  0  0  0  0  0  0  0  0  0
    1.0971    5.8547    2.3329 H   0  0  0  0  0  0  0  0  0  0  0  0
    0.7642    8.3116    2.5949 H   0  0  0  0  0  0  0  0  0  0  0  0
   -0.6889    8.3326    1.5649 H   0  0  0  0  0  0  0  0  0  0  0  0
    0.7102    9.3673    1.1832 H   0  0  0  0  0  0  0  0  0  0  0  0
    0.9211    8.4259   -1.1133 H   0  0  0  0  0  0  0  0  0  0  0  0
    2.2109    5.8377   -3.4009 H   0  0  0  0  0  0  0  0  0  0  0  0
    1.8186    7.4937   -3.2067 H   0  0  0  0  0  0  0  0  0  0  0  0
    2.3053    4.5134   -1.4384 H   0  0  0  0  0  0  0  0  0  0  0  0
    0.7051    2.6568   -0.4394 H   0  0  0  0  0  0  0  0  0  0  0  0
    1.0866    0.2052   -0.9798 H   0  0  0  0  0  0  0  0  0  0  0  0
    1.7705   -0.8598    0.2160 H   0  0  0  0  0  0  0  0  0  0  0  0
   -0.7192    0.6902    0.6476 H   0  0  0  0  0  0  0  0  0  0  0  0
    0.3229   -1.7675    1.9138 H   0  0  0  0  0  0  0  0  0  0  0  0
   -1.2450   -1.0188    2.2159 H   0  0  0  0  0  0  0  0  0  0  0  0
    0.2256   -0.1657    2.6936 H   0  0  0  0  0  0  0  0  0  0  0  0
    3.0813    0.0802    2.0484 H   0  0  0  0  0  0  0  0  0  0  0  0
 18  1  1  0
  1  2  2  0
  2 19  1  0
  2  3  1  0
  3  4  1  0
  4  5  2  0
  5 20  1  0
  5  6  1  0
  6  7  1  0
  7 21  1  0
  7 22  1  0
  7 23  1  0
  6  8  2  0
  8 24  1  0
  8  9  1  0
  9 10  1  0
 10 25  1  0
 10 26  1  0
  4 11  1  0
  9 11  2  0
 11 27  1  0
  3 12  2  0
 12 28  1  0
 12 13  1  0
 13 14  1  0
 14 29  1  0
 14 30  1  0
 14 15  1  0
 15 31  1  0
 15 16  1  0
 16 32  1  0
 16 33  1  0
 16 34  1  0
  1 17  1  0
 13 17  2  0
 17 35  1  0
M  CHG  1  11   1
M  END
>  <conformer_energy>  (1) 
38.91

>  <ligand_smiles>  (1) 
CNCc1cccc(-c2cc(C)cc(N)[nH+]2)c1

>  <ligand_conf_name>  (1) 
MOL_0_isomer_0_conf_0

>  <ligand_molecule_name>  (1) 
MOL_0_isomer_0

$$$$
