1IG3 - prepared_ligand2_conf_0
     RDKit          3D

 35 36  0  0  0  0  0  0  0  0999 V2000
    0.2619   -0.6920    2.5848 O   0  0  0  0  0  0  0  0  0  0  0  0
   -0.1700    0.4257    1.8108 C   0  0  0  0  0  0  0  0  0  0  0  0
    0.0901    0.1626    0.3272 C   0  0  0  0  0  0  0  0  0  0  0  0
    1.5587    0.0039    0.0369 C   0  0  0  0  0  0  0  0  0  0  0  0
    2.4871    1.3485   -0.4878 S   0  0  0  0  0  0  0  0  0  0  0  0
    3.9167    0.4165   -0.5283 C   0  0  0  0  0  0  0  0  0  0  0  0
    3.6866   -0.8437   -0.1892 N   0  0  0  0  0  0  0  0  0  0  0  0
    4.7926   -1.8162   -0.1389 C   0  0  0  0  0  0  0  0  0  0  0  0
    5.2676   -2.1367   -1.5185 C   0  0  0  0  0  0  0  0  0  0  0  0
    4.6054   -3.0479   -2.3169 C   0  0  0  0  0  0  0  0  0  0  0  0
    4.9318   -3.2972   -3.5935 N   0  0  0  0  0  0  0  0  0  0  0  0
    5.9567   -2.5945   -4.1000 C   0  0  0  0  0  0  0  0  0  0  0  0
    6.3623   -2.8611   -5.5157 C   0  0  0  0  0  0  0  0  0  0  0  0
    6.6677   -1.6947   -3.3981 N   0  0  0  0  0  0  0  0  0  0  0  0
    6.3317   -1.4952   -2.1206 C   0  0  0  0  0  0  0  0  0  0  0  0
    7.1067   -0.5596   -1.4567 N   0  0  0  0  0  0  0  0  0  0  0  0
    2.3615   -1.1190    0.1460 C   0  0  0  0  0  0  0  0  0  0  0  0
    1.9690   -2.4832    0.5825 C   0  0  0  0  0  0  0  0  0  0  0  0
   -0.0653   -0.5437    3.4928 H   0  0  0  0  0  0  0  0  0  0  0  0
   -1.2424    0.5666    1.9798 H   0  0  0  0  0  0  0  0  0  0  0  0
    0.3634    1.3154    2.1611 H   0  0  0  0  0  0  0  0  0  0  0  0
   -0.4311   -0.7516    0.0186 H   0  0  0  0  0  0  0  0  0  0  0  0
   -0.3310    0.9825   -0.2668 H   0  0  0  0  0  0  0  0  0  0  0  0
    4.8800    0.8276   -0.8053 H   0  0  0  0  0  0  0  0  0  0  0  0
    5.5902   -1.3959    0.4858 H   0  0  0  0  0  0  0  0  0  0  0  0
    4.4890   -2.7359    0.3706 H   0  0  0  0  0  0  0  0  0  0  0  0
    3.7570   -3.6264   -1.9620 H   0  0  0  0  0  0  0  0  0  0  0  0
    5.4973   -3.1644   -6.1132 H   0  0  0  0  0  0  0  0  0  0  0  0
    7.1073   -3.6616   -5.5407 H   0  0  0  0  0  0  0  0  0  0  0  0
    6.7934   -1.9628   -5.9679 H   0  0  0  0  0  0  0  0  0  0  0  0
    7.7690   -0.1412   -2.1137 H   0  0  0  0  0  0  0  0  0  0  0  0
    7.5650   -0.8506   -0.6011 H   0  0  0  0  0  0  0  0  0  0  0  0
    2.2621   -3.2323   -0.1577 H   0  0  0  0  0  0  0  0  0  0  0  0
    0.8866   -2.5745    0.7101 H   0  0  0  0  0  0  0  0  0  0  0  0
    2.4370   -2.7279    1.5411 H   0  0  0  0  0  0  0  0  0  0  0  0
 19  1  1  0
  1  2  1  0
  2 20  1  0
  2 21  1  0
  2  3  1  0
  3 22  1  0
  3 23  1  0
  3  4  1  0
  4  5  1  0
  5  6  1  0
  6 24  1  0
  6  7  2  0
  7  8  1  0
  8 25  1  0
  8 26  1  0
  8  9  1  0
  9 10  2  0
 10 27  1  0
 10 11  1  0
 11 12  2  0
 12 13  1  0
 13 28  1  0
 13 29  1  0
 13 30  1  0
 12 14  1  0
  9 15  1  0
 14 15  2  0
 15 16  1  0
 16 31  1  0
 16 32  1  0
  4 17  2  0
  7 17  1  0
 17 18  1  0
 18 33  1  0
 18 34  1  0
 18 35  1  0
M  CHG  1   7   1
M  END
>  <conformer_energy>  (1) 
-26.83

>  <ligand_smiles>  (1) 
Cc1ncc(C[n+]2csc(CCO)c2C)c(N)n1

>  <ligand_conf_name>  (1) 
1IG3 - prepared_ligand2_conf_0

>  <ligand_molecule_name>  (1) 
1IG3 - prepared_ligand2

$$$$
