MOL_0_isomer_0_conf_0
     RDKit          3D

 38 40  0  0  0  0  0  0  0  0999 V2000
    5.4969    1.7939   -0.8885 C   0  0  0  0  0  0  0  0  0  0  0  0
    5.7118    1.4686    0.4261 N   0  0  0  0  0  0  0  0  0  0  0  0
    4.5153    1.3360    0.9512 C   0  0  0  0  0  0  0  0  0  0  0  0
    3.5393    1.5500    0.0210 N   0  0  0  0  0  0  0  0  0  0  0  0
    2.1090    1.4766    0.2588 C   0  0  0  0  0  0  0  0  0  0  0  0
    1.5604    0.0650    0.0047 C   0  0  1  0  0  0  0  0  0  0  0  0
    2.0329   -0.8095    1.0512 O   0  0  0  0  0  0  0  0  0  0  0  0
    2.2663   -2.0916    0.6787 C   0  0  0  0  0  0  0  0  0  0  0  0
    2.1096   -2.5559   -0.4382 O   0  0  0  0  0  0  0  0  0  0  0  0
    2.7580   -2.8895    1.8327 C   0  0  0  0  0  0  0  0  0  0  0  0
    2.8849   -2.3491    3.1189 C   0  0  0  0  0  0  0  0  0  0  0  0
    3.3514   -3.1491    4.1621 C   0  0  0  0  0  0  0  0  0  0  0  0
    3.5019   -2.4803    5.7406 Cl  0  0  0  0  0  0  0  0  0  0  0  0
    3.6935   -4.4808    3.9424 C   0  0  0  0  0  0  0  0  0  0  0  0
    3.5650   -5.0143    2.6628 C   0  0  0  0  0  0  0  0  0  0  0  0
    3.9826   -6.6593    2.3812 Cl  0  0  0  0  0  0  0  0  0  0  0  0
    3.1002   -4.2299    1.6083 C   0  0  0  0  0  0  0  0  0  0  0  0
    0.0409    0.0582    0.0309 C   0  0  0  0  0  0  0  0  0  0  0  0
   -0.6727    0.3973    1.1945 C   0  0  0  0  0  0  0  0  0  0  0  0
   -2.0686    0.3859    1.1974 C   0  0  0  0  0  0  0  0  0  0  0  0
   -2.7544    0.0312    0.0426 C   0  0  0  0  0  0  0  0  0  0  0  0
   -4.0935    0.0201    0.0479 F   0  0  0  0  0  0  0  0  0  0  0  0
   -2.0710   -0.3168   -1.1154 C   0  0  0  0  0  0  0  0  0  0  0  0
   -0.6751   -0.3058   -1.1221 C   0  0  0  0  0  0  0  0  0  0  0  0
    4.1499    1.8556   -1.1620 C   0  0  0  0  0  0  0  0  0  0  0  0
    6.3225    1.9674   -1.5667 H   0  0  0  0  0  0  0  0  0  0  0  0
    4.3062    1.0853    1.9831 H   0  0  0  0  0  0  0  0  0  0  0  0
    1.6357    2.2138   -0.4010 H   0  0  0  0  0  0  0  0  0  0  0  0
    1.9453    1.7956    1.2954 H   0  0  0  0  0  0  0  0  0  0  0  0
    1.9240   -0.2740   -0.9746 H   0  0  0  0  0  0  0  0  0  0  0  0
    2.6238   -1.3135    3.3192 H   0  0  0  0  0  0  0  0  0  0  0  0
    4.0567   -5.0974    4.7604 H   0  0  0  0  0  0  0  0  0  0  0  0
    3.0051   -4.6601    0.6126 H   0  0  0  0  0  0  0  0  0  0  0  0
   -0.1481    0.6620    2.1102 H   0  0  0  0  0  0  0  0  0  0  0  0
   -2.6254    0.6453    2.0924 H   0  0  0  0  0  0  0  0  0  0  0  0
   -2.6278   -0.6007   -2.0029 H   0  0  0  0  0  0  0  0  0  0  0  0
   -0.1506   -0.5966   -2.0311 H   0  0  0  0  0  0  0  0  0  0  0  0
    3.6058    2.0795   -2.0688 H   0  0  0  0  0  0  0  0  0  0  0  0
 26  1  1  0
  1  2  1  0
  2  3  2  0
  3 27  1  0
  3  4  1  0
  4  5  1  0
  5 28  1  0
  5 29  1  0
  5  6  1  0
  6 30  1  6
  6  7  1  0
  7  8  1  0
  8  9  2  0
  8 10  1  0
 10 11  2  0
 11 31  1  0
 11 12  1  0
 12 13  1  0
 12 14  2  0
 14 32  1  0
 14 15  1  0
 15 16  1  0
 10 17  1  0
 15 17  2  0
 17 33  1  0
  6 18  1  0
 18 19  2  0
 19 34  1  0
 19 20  1  0
 20 35  1  0
 20 21  2  0
 21 22  1  0
 21 23  1  0
 23 36  1  0
 18 24  1  0
 23 24  2  0
 24 37  1  0
  1 25  2  0
  4 25  1  0
 25 38  1  0
M  END
>  <conformer_energy>  (1) 
25.98

>  <ligand_smiles>  (1) 
O=C(O[C@H](Cn1ccnc1)c1ccc(F)cc1)c1cc(Cl)cc(Cl)c1

>  <ligand_conf_name>  (1) 
MOL_0_isomer_0_conf_0

>  <ligand_molecule_name>  (1) 
MOL_0_isomer_0

$$$$
