MOL_0_isomer_0_conf_0
     RDKit          3D

 60 64  0  0  0  0  0  0  0  0999 V2000
    4.8186    6.3274    0.1969 C   0  0  0  0  0  0  0  0  0  0  0  0
    3.7596    7.1519    0.2924 N   0  0  0  0  0  0  0  0  0  0  0  0
    2.5363    6.6079    0.2649 C   0  0  0  0  0  0  0  0  0  0  0  0
    1.3801    7.3738    0.3587 N   0  0  0  0  0  0  0  0  0  0  0  0
    1.1196    8.7441    0.4879 C   0  0  0  0  0  0  0  0  0  0  0  0
    2.1126    9.7263    0.5406 C   0  0  0  0  0  0  0  0  0  0  0  0
    1.8134   11.0917    0.6733 C   0  0  0  0  0  0  0  0  0  0  0  0
    0.4650   11.4544    0.7551 C   0  0  0  0  0  0  0  0  0  0  0  0
   -0.5587   10.5165    0.7103 C   0  0  0  0  0  0  0  0  0  0  0  0
   -1.7636   11.2683    0.8247 C   0  0  0  0  0  0  0  0  0  0  0  0
   -3.1418   10.7496    0.8341 C   0  0  0  0  0  0  0  0  0  0  0  0
   -3.4159    9.5550    0.7523 O   0  0  0  0  0  0  0  0  0  0  0  0
   -4.0908   11.7413    0.9493 N   0  0  0  0  0  0  0  0  0  0  0  0
   -5.4995   11.4738    0.9998 C   0  0  0  0  0  0  0  0  0  0  0  0
   -1.5077   12.5905    0.9336 N   0  0  0  0  0  0  0  0  0  0  0  0
   -0.1629   12.6661    0.8855 N   0  0  0  0  0  0  0  0  0  0  0  0
    0.4808   13.9561    0.9757 C   0  0  0  0  0  0  0  0  0  0  0  0
   -0.2255    9.1528    0.5754 C   0  0  0  0  0  0  0  0  0  0  0  0
    2.3266    5.2868    0.1496 N   0  0  0  0  0  0  0  0  0  0  0  0
    3.4184    4.4866    0.0565 C   0  0  0  0  0  0  0  0  0  0  0  0
    3.2025    3.0829   -0.0623 N   0  0  0  0  0  0  0  0  0  0  0  0
    4.2227    2.1888   -0.1434 N   0  0  0  0  0  0  0  0  0  0  0  0
    3.6255    0.9952   -0.2409 C   0  0  0  0  0  0  0  0  0  0  0  0
    4.4485   -0.2338   -0.3596 C   0  0  0  0  0  0  0  0  0  0  0  0
    2.2134    1.1122   -0.2102 C   0  0  0  0  0  0  0  0  0  0  0  0
    1.3034    0.1100   -0.2853 N   0  0  0  0  0  0  0  0  0  0  0  0
   -0.1425    0.3495   -0.3110 C   0  0  2  0  0  0  0  0  0  0  0  0
   -0.6644    0.7044    1.0779 C   0  0  0  0  0  0  0  0  0  0  0  0
   -0.6884   -0.6246    1.8069 C   0  0  0  0  0  0  0  0  0  0  0  0
   -0.9838   -1.6451    0.7426 N   0  0  0  0  0  4  0  0  0  0  0  0
   -0.9236   -0.9434   -0.5927 C   0  0  0  0  0  0  0  0  0  0  0  0
    1.9731    2.4548   -0.1019 C   0  0  0  0  0  0  0  0  0  0  0  0
    4.7088    4.9678    0.0759 C   0  0  0  0  0  0  0  0  0  0  0  0
    5.7894    6.8147    0.2221 H   0  0  0  0  0  0  0  0  0  0  0  0
    0.5736    6.7703    0.3153 H   0  0  0  0  0  0  0  0  0  0  0  0
    3.1626    9.4528    0.4770 H   0  0  0  0  0  0  0  0  0  0  0  0
    2.6100   11.8280    0.7096 H   0  0  0  0  0  0  0  0  0  0  0  0
   -3.7281   12.6884    1.0323 H   0  0  0  0  0  0  0  0  0  0  0  0
   -5.7608   10.6884    0.2857 H   0  0  0  0  0  0  0  0  0  0  0  0
   -6.0391   12.3926    0.7593 H   0  0  0  0  0  0  0  0  0  0  0  0
   -5.7573   11.1468    2.0103 H   0  0  0  0  0  0  0  0  0  0  0  0
    1.0819   13.9768    1.8880 H   0  0  0  0  0  0  0  0  0  0  0  0
   -0.2781   14.7421    1.0113 H   0  0  0  0  0  0  0  0  0  0  0  0
    1.1114   14.0909    0.0934 H   0  0  0  0  0  0  0  0  0  0  0  0
   -1.0284    8.4210    0.5406 H   0  0  0  0  0  0  0  0  0  0  0  0
    5.5196   -0.0086   -0.3254 H   0  0  0  0  0  0  0  0  0  0  0  0
    4.2395   -0.7410   -1.3069 H   0  0  0  0  0  0  0  0  0  0  0  0
    4.2222   -0.9240    0.4593 H   0  0  0  0  0  0  0  0  0  0  0  0
    1.6397   -0.8260   -0.5041 H   0  0  0  0  0  0  0  0  0  0  0  0
   -0.3882    1.1108   -1.0595 H   0  0  0  0  0  0  0  0  0  0  0  0
   -1.6842    1.1023    1.0012 H   0  0  0  0  0  0  0  0  0  0  0  0
   -0.0630    1.4416    1.6167 H   0  0  0  0  0  0  0  0  0  0  0  0
   -1.4683   -0.6875    2.5702 H   0  0  0  0  0  0  0  0  0  0  0  0
    0.2847   -0.8840    2.2354 H   0  0  0  0  0  0  0  0  0  0  0  0
   -0.2823   -2.3958    0.7884 H   0  0  0  0  0  0  0  0  0  0  0  0
   -1.9028   -2.0840    0.8892 H   0  0  0  0  0  0  0  0  0  0  0  0
   -1.9595   -0.7374   -0.8806 H   0  0  0  0  0  0  0  0  0  0  0  0
   -0.4488   -1.6177   -1.3105 H   0  0  0  0  0  0  0  0  0  0  0  0
    1.0689    3.0428   -0.0541 H   0  0  0  0  0  0  0  0  0  0  0  0
    5.5836    4.3351    0.0018 H   0  0  0  0  0  0  0  0  0  0  0  0
 34  1  1  0
  1  2  2  0
  2  3  1  0
  3  4  1  0
  4 35  1  0
  4  5  1  0
  5  6  2  0
  6 36  1  0
  6  7  1  0
  7 37  1  0
  7  8  2  0
  8  9  1  0
  9 10  1  0
 10 11  1  0
 11 12  2  0
 11 13  1  0
 13 38  1  0
 13 14  1  0
 14 39  1  0
 14 40  1  0
 14 41  1  0
 10 15  2  0
  8 16  1  0
 15 16  1  0
 16 17  1  0
 17 42  1  0
 17 43  1  0
 17 44  1  0
  5 18  1  0
  9 18  2  0
 18 45  1  0
  3 19  2  0
 19 20  1  0
 20 21  1  0
 21 22  1  0
 22 23  2  0
 23 24  1  0
 24 46  1  0
 24 47  1  0
 24 48  1  0
 23 25  1  0
 25 26  1  0
 26 49  1  0
 26 27  1  0
 27 50  1  6
 27 28  1  0
 28 51  1  0
 28 52  1  0
 28 29  1  0
 29 53  1  0
 29 54  1  0
 29 30  1  0
 30 55  1  0
 30 56  1  0
 27 31  1  0
 30 31  1  0
 31 57  1  0
 31 58  1  0
 21 32  1  0
 25 32  2  0
 32 59  1  0
  1 33  1  0
 20 33  2  0
 33 60  1  0
M  CHG  1  30   1
M  END
>  <conformer_energy>  (1) 
25.73

>  <ligand_smiles>  (1) 
CNC(=O)c1nn(C)c2ccc(Nc3nccc(-n4cc(N[C@@H]5CC[NH2+]C5)c(C)n4)n3)cc12

>  <ligand_conf_name>  (1) 
MOL_0_isomer_0_conf_0

>  <ligand_molecule_name>  (1) 
MOL_0_isomer_0

$$$$
