MOL_0_isomer_0_conf_0
     RDKit          3D

 51 51  0  0  0  0  0  0  0  0999 V2000
    0.9776   -5.7967    2.4317 C   0  0  0  0  0  0  0  0  0  0  0  0
    1.0397   -4.4611    2.0308 C   0  0  0  0  0  0  0  0  0  0  0  0
    2.2477   -3.9110    1.5655 C   0  0  0  0  0  0  0  0  0  0  0  0
    2.2951   -2.4844    1.0815 C   0  0  0  0  0  0  0  0  0  0  0  0
    1.8783   -2.4052   -0.6871 S   0  0  0  0  0  0  0  0  0  0  0  0
    2.0680   -0.6031   -0.9577 C   0  0  0  0  0  0  0  0  0  0  0  0
    0.9958    0.2726   -0.2779 C   0  0  1  0  0  0  0  0  0  0  0  0
    1.2183    1.7299   -0.7200 C   0  0  0  0  0  0  0  0  0  0  0  0
    0.4935    2.2918   -1.5448 O   0  0  0  0  0  0  0  0  0  0  0  0
    2.3222    2.3058   -0.1541 N   0  0  0  0  0  0  0  0  0  0  0  0
    2.9405    3.5651   -0.5904 C   0  0  0  0  0  0  0  0  0  0  0  0
    4.4216    3.6559   -0.1111 C   0  0  0  0  0  0  0  0  0  0  0  0
    5.1140    4.6097   -0.5793 O   0  0  0  0  0  0  0  0  0  0  0  0
    4.7379    2.7153    0.6911 O   0  0  0  0  0  1  0  0  0  0  0  0
   -0.3504   -0.1253   -0.6814 N   0  0  0  0  0  0  0  0  0  0  0  0
   -1.2123   -0.7918    0.1410 C   0  0  0  0  0  0  0  0  0  0  0  0
   -1.0236   -0.9615    1.3406 O   0  0  0  0  0  0  0  0  0  0  0  0
   -2.4504   -1.2897   -0.5638 C   0  0  0  0  0  0  0  0  0  0  0  0
   -3.5603   -1.7217    0.4000 C   0  0  0  0  0  0  0  0  0  0  0  0
   -4.3904   -0.5746    0.8990 C   0  0  1  0  0  0  0  0  0  0  0  0
   -5.6085   -0.9928    1.7761 C   0  0  0  0  0  0  0  0  0  0  0  0
   -5.7486   -0.1613    2.7255 O   0  0  0  0  0  0  0  0  0  0  0  0
   -6.2730   -1.9810    1.4146 O   0  0  0  0  0  1  0  0  0  0  0  0
   -3.5668    0.4328    1.6437 N   0  0  0  0  0  4  0  0  0  0  0  0
    3.3944   -4.7188    1.5035 C   0  0  0  0  0  0  0  0  0  0  0  0
    3.3411   -6.0544    1.9021 C   0  0  0  0  0  0  0  0  0  0  0  0
    2.1289   -6.5876    2.3600 C   0  0  0  0  0  0  0  0  0  0  0  0
    2.0696   -7.9961    2.7714 N   0  0  0  0  0  4  0  0  0  0  0  0
    3.0177   -8.7325    2.4572 O   0  0  0  0  0  0  0  0  0  0  0  0
    1.0723   -8.3699    3.4040 O   0  0  0  0  0  1  0  0  0  0  0  0
    0.0286   -6.2005    2.7820 H   0  0  0  0  0  0  0  0  0  0  0  0
    0.1404   -3.8505    2.0704 H   0  0  0  0  0  0  0  0  0  0  0  0
    3.3011   -2.0747    1.2326 H   0  0  0  0  0  0  0  0  0  0  0  0
    1.5978   -1.8711    1.6713 H   0  0  0  0  0  0  0  0  0  0  0  0
    2.0355   -0.4518   -2.0460 H   0  0  0  0  0  0  0  0  0  0  0  0
    3.0764   -0.3205   -0.6448 H   0  0  0  0  0  0  0  0  0  0  0  0
    1.0877    0.2257    0.8157 H   0  0  0  0  0  0  0  0  0  0  0  0
    2.9246    1.8315    0.5208 H   0  0  0  0  0  0  0  0  0  0  0  0
    2.8800    3.6176   -1.6844 H   0  0  0  0  0  0  0  0  0  0  0  0
    2.3660    4.3846   -0.1573 H   0  0  0  0  0  0  0  0  0  0  0  0
   -0.6043    0.1132   -1.6240 H   0  0  0  0  0  0  0  0  0  0  0  0
   -2.1406   -2.1421   -1.1789 H   0  0  0  0  0  0  0  0  0  0  0  0
   -2.8157   -0.5140   -1.2453 H   0  0  0  0  0  0  0  0  0  0  0  0
   -3.1683   -2.3125    1.2387 H   0  0  0  0  0  0  0  0  0  0  0  0
   -4.2196   -2.3937   -0.1443 H   0  0  0  0  0  0  0  0  0  0  0  0
   -4.8062   -0.0330    0.0413 H   0  0  0  0  0  0  0  0  0  0  0  0
   -3.2747    1.2596    1.1052 H   0  0  0  0  0  0  0  0  0  0  0  0
   -4.2433    0.7221    2.3772 H   0  0  0  0  0  0  0  0  0  0  0  0
   -2.7762    0.0108    2.1486 H   0  0  0  0  0  0  0  0  0  0  0  0
    4.3313   -4.3076    1.1320 H   0  0  0  0  0  0  0  0  0  0  0  0
    4.2390   -6.6594    1.8375 H   0  0  0  0  0  0  0  0  0  0  0  0
 31  1  1  0
  1  2  2  0
  2 32  1  0
  2  3  1  0
  3  4  1  0
  4 33  1  0
  4 34  1  0
  4  5  1  0
  5  6  1  0
  6 35  1  0
  6 36  1  0
  6  7  1  0
  7 37  1  1
  7  8  1  0
  8  9  2  0
  8 10  1  0
 10 38  1  0
 10 11  1  0
 11 39  1  0
 11 40  1  0
 11 12  1  0
 12 13  2  0
 12 14  1  0
  7 15  1  0
 15 41  1  0
 15 16  1  0
 16 17  2  0
 16 18  1  0
 18 42  1  0
 18 43  1  0
 18 19  1  0
 19 44  1  0
 19 45  1  0
 19 20  1  0
 20 46  1  6
 20 21  1  0
 21 22  2  0
 21 23  1  0
 20 24  1  0
 24 47  1  0
 24 48  1  0
 24 49  1  0
  3 25  2  0
 25 50  1  0
 25 26  1  0
 26 51  1  0
  1 27  1  0
 26 27  2  0
 27 28  1  0
 28 29  2  0
 28 30  1  0
M  CHG  5  14  -1  23  -1  24   1  28   1  30  -1
M  END
>  <conformer_energy>  (1) 
71.91

>  <ligand_smiles>  (1) 
[NH3+][C@@H](CCC(=O)N[C@@H](CSCc1ccc([N+](=O)[O-])cc1)C(=O)NCC(=O)[O-])C(=O)[O-]

>  <ligand_conf_name>  (1) 
MOL_0_isomer_0_conf_0

>  <ligand_molecule_name>  (1) 
MOL_0_isomer_0

$$$$
