MOL_0_isomer_0_conf_0
     RDKit          3D

 77 82  0  0  0  0  0  0  0  0999 V2000
    4.4466    8.1104   -0.3318 C   0  0  0  0  0  0  0  0  0  0  0  0
    3.9582    8.2789    0.9236 N   0  0  0  0  0  0  0  0  0  0  0  0
    3.0830    7.3676    1.3900 C   0  0  0  0  0  0  0  0  0  0  0  0
    2.6408    7.5203    2.6915 N   0  0  0  0  0  0  0  0  0  0  0  0
    2.2074    6.3635    3.4781 C   0  0  0  0  0  0  0  0  0  0  0  0
    2.5961    6.5144    4.9686 C   0  0  0  0  0  0  0  0  0  0  0  0
    2.1427    7.8695    5.4923 N   0  0  1  0  0  4  0  0  0  0  0  0
    2.5539    8.0015    6.9380 C   0  0  0  0  0  0  0  0  0  0  0  0
    1.7056    7.1483    7.9195 C   0  0  0  0  0  0  0  0  0  0  0  0
    0.7815    8.2657    8.0823 O   0  0  0  0  0  0  0  0  0  0  0  0
    1.8347    9.1792    7.6695 C   0  0  0  0  0  0  0  0  0  0  0  0
    2.8071    8.9786    4.6962 C   0  0  0  0  0  0  0  0  0  0  0  0
    2.4339    8.8874    3.1950 C   0  0  2  0  0  0  0  0  0  0  0  0
    0.9813    9.3095    2.9430 C   0  0  0  0  0  0  0  0  0  0  0  0
    2.6489    6.3137    0.5758 C   0  0  0  0  0  0  0  0  0  0  0  0
    3.1394    6.1540   -0.7247 C   0  0  0  0  0  0  0  0  0  0  0  0
    2.7599    5.0836   -1.5713 N   0  0  0  0  0  0  0  0  0  0  0  0
    1.8571    4.0676   -1.2823 C   0  0  0  0  0  0  0  0  0  0  0  0
    1.1153    4.0274   -0.2981 O   0  0  0  0  0  0  0  0  0  0  0  0
    1.9067    2.9107   -2.2731 C   0  0  0  0  0  0  0  0  0  0  0  0
    2.7204    1.8396   -1.7244 N   0  0  0  0  0  0  0  0  0  0  0  0
    4.0186    1.9812   -1.2950 C   0  0  0  0  0  0  0  0  0  0  0  0
    4.3887    0.8343   -0.6065 C   0  0  0  0  0  0  0  0  0  0  0  0
    5.6671    0.7476    0.0742 C   0  0  0  0  0  0  0  0  0  0  0  0
    6.5381   -0.3091   -0.1604 C   0  0  0  0  0  0  0  0  0  0  0  0
    7.8136   -0.3215    0.4319 C   0  0  0  0  0  0  0  0  0  0  0  0
    8.8118   -1.6969   -0.0177 Cl  0  0  0  0  0  0  0  0  0  0  0  0
    8.3026    0.7107    1.2949 C   0  0  0  0  0  0  0  0  0  0  0  0
    9.4927    0.7151    1.7686 O   0  0  0  0  0  1  0  0  0  0  0  0
    7.3469    1.7522    1.5591 C   0  0  0  0  0  0  0  0  0  0  0  0
    7.6074    2.9425    2.4856 C   0  0  0  0  0  0  0  0  0  0  0  0
    6.7730    3.8322    2.6589 O   0  0  0  0  0  0  0  0  0  0  0  0
    8.8275    2.9811    3.1009 N   0  0  0  0  0  0  0  0  0  0  0  0
    6.0713    1.7613    0.9464 C   0  0  0  0  0  0  0  0  0  0  0  0
    3.2995   -0.0715   -0.7403 C   0  0  0  0  0  0  0  0  0  0  0  0
    3.0438   -1.4132   -0.2711 C   0  0  0  0  0  0  0  0  0  0  0  0
    3.8892   -2.0956    0.3082 O   0  0  0  0  0  0  0  0  0  0  0  0
    1.7360   -1.8700   -0.5524 N   0  0  0  0  0  0  0  0  0  0  0  0
    1.3925   -3.2000   -0.0619 C   0  0  0  0  0  0  0  0  0  0  0  0
    0.8104   -1.1052   -1.3023 C   0  0  0  0  0  0  0  0  0  0  0  0
   -0.5706   -1.7197   -1.6028 C   0  0  0  0  0  0  0  0  0  0  0  0
   -1.3138   -1.8879   -0.4685 F   0  0  0  0  0  0  0  0  0  0  0  0
   -1.3343   -0.9611   -2.4361 F   0  0  0  0  0  0  0  0  0  0  0  0
   -0.4743   -2.9455   -2.1833 F   0  0  0  0  0  0  0  0  0  0  0  0
    1.0639    0.1026   -1.7440 N   0  0  0  0  0  0  0  0  0  0  0  0
    2.2942    0.5723   -1.4302 C   0  0  0  0  0  0  0  0  0  0  0  0
    4.0763    7.0820   -1.1843 C   0  0  0  0  0  0  0  0  0  0  0  0
    4.7653    7.0040   -2.7632 Cl  0  0  0  0  0  0  0  0  0  0  0  0
    5.1665    8.8653   -0.6419 H   0  0  0  0  0  0  0  0  0  0  0  0
    1.1215    6.2534    3.3791 H   0  0  0  0  0  0  0  0  0  0  0  0
    2.6731    5.4336    3.1212 H   0  0  0  0  0  0  0  0  0  0  0  0
    3.6864    6.4697    5.0908 H   0  0  0  0  0  0  0  0  0  0  0  0
    2.1238    5.7355    5.5793 H   0  0  0  0  0  0  0  0  0  0  0  0
    1.1205    7.9541    5.4095 H   0  0  0  0  0  0  0  0  0  0  0  0
    3.6372    7.9498    7.0921 H   0  0  0  0  0  0  0  0  0  0  0  0
    2.1928    6.8900    8.8674 H   0  0  0  0  0  0  0  0  0  0  0  0
    1.1946    6.2602    7.5315 H   0  0  0  0  0  0  0  0  0  0  0  0
    1.4365    9.9874    7.0453 H   0  0  0  0  0  0  0  0  0  0  0  0
    2.3637    9.6016    8.5343 H   0  0  0  0  0  0  0  0  0  0  0  0
    2.4844    9.9417    5.1162 H   0  0  0  0  0  0  0  0  0  0  0  0
    3.8940    8.8656    4.8326 H   0  0  0  0  0  0  0  0  0  0  0  0
    3.0797    9.6127    2.6854 H   0  0  0  0  0  0  0  0  0  0  0  0
    0.7477    9.2909    1.8709 H   0  0  0  0  0  0  0  0  0  0  0  0
    0.2835    8.6266    3.4322 H   0  0  0  0  0  0  0  0  0  0  0  0
    0.7953   10.3224    3.3146 H   0  0  0  0  0  0  0  0  0  0  0  0
    1.9094    5.6379    0.9683 H   0  0  0  0  0  0  0  0  0  0  0  0
    3.2627    5.0326   -2.4537 H   0  0  0  0  0  0  0  0  0  0  0  0
    2.3344    3.2043   -3.2344 H   0  0  0  0  0  0  0  0  0  0  0  0
    0.8814    2.5600   -2.4471 H   0  0  0  0  0  0  0  0  0  0  0  0
    4.5733    2.8934   -1.4622 H   0  0  0  0  0  0  0  0  0  0  0  0
    6.2535   -1.1212   -0.8236 H   0  0  0  0  0  0  0  0  0  0  0  0
    9.4650    2.2347    2.7648 H   0  0  0  0  0  0  0  0  0  0  0  0
    9.1093    3.6994    3.7410 H   0  0  0  0  0  0  0  0  0  0  0  0
    5.3912    2.5904    1.1501 H   0  0  0  0  0  0  0  0  0  0  0  0
    1.3458   -3.8839   -0.9165 H   0  0  0  0  0  0  0  0  0  0  0  0
    2.1184   -3.6021    0.6621 H   0  0  0  0  0  0  0  0  0  0  0  0
    0.4174   -3.1817    0.4239 H   0  0  0  0  0  0  0  0  0  0  0  0
 49  1  1  0
  1  2  2  0
  2  3  1  0
  3  4  1  0
  4  5  1  0
  5 50  1  0
  5 51  1  0
  5  6  1  0
  6 52  1  0
  6 53  1  0
  6  7  1  0
  7 54  1  1
  7  8  1  0
  8 55  1  0
  8  9  1  0
  9 56  1  0
  9 57  1  0
  9 10  1  0
  8 11  1  0
 10 11  1  0
 11 58  1  0
 11 59  1  0
  7 12  1  0
 12 60  1  0
 12 61  1  0
  4 13  1  0
 12 13  1  0
 13 62  1  6
 13 14  1  0
 14 63  1  0
 14 64  1  0
 14 65  1  0
  3 15  2  0
 15 66  1  0
 15 16  1  0
 16 17  1  0
 17 67  1  0
 17 18  1  0
 18 19  2  0
 18 20  1  0
 20 68  1  0
 20 69  1  0
 20 21  1  0
 21 22  1  0
 22 70  1  0
 22 23  2  0
 23 24  1  0
 24 25  2  0
 25 71  1  0
 25 26  1  0
 26 27  1  0
 26 28  2  0
 28 29  1  0
 28 30  1  0
 30 31  1  0
 31 32  2  0
 31 33  1  0
 33 72  1  0
 33 73  1  0
 24 34  1  0
 30 34  2  0
 34 74  1  0
 23 35  1  0
 35 36  1  0
 36 37  2  0
 36 38  1  0
 38 39  1  0
 39 75  1  0
 39 76  1  0
 39 77  1  0
 38 40  1  0
 40 41  1  0
 41 42  1  0
 41 43  1  0
 41 44  1  0
 40 45  2  0
 35 46  2  0
 21 46  1  0
 45 46  1  0
  1 47  1  0
 16 47  2  0
 47 48  1  0
M  CHG  2   7   1  29  -1
M  END
>  <conformer_energy>  (1) 
155.89

>  <ligand_smiles>  (1) 
C[C@H]1C[N@H+](C2COC2)CCN1c1cc(NC(=O)Cn2cc(-c3cc(Cl)c([O-])c(C(N)=O)c3)c3c(=O)n(C)c(C(F)(F)F)nc32)c(Cl)cn1

>  <ligand_conf_name>  (1) 
MOL_0_isomer_0_conf_0

>  <ligand_molecule_name>  (1) 
MOL_0_isomer_0

$$$$
