MOL_0_isomer_0_conf_0
     RDKit          3D

 39 42  0  0  0  0  0  0  0  0999 V2000
   -4.2839    0.0959    0.5444 O   0  0  0  0  0  0  0  0  0  0  0  0
   -2.9360    0.0776    0.3429 C   0  0  0  0  0  0  0  0  0  0  0  0
   -2.1132    0.0700    1.4593 C   0  0  0  0  0  0  0  0  0  0  0  0
   -0.7264    0.0513    1.2959 C   0  0  0  0  0  0  0  0  0  0  0  0
   -0.1447    0.0307    0.0137 C   0  0  0  0  0  0  0  0  0  0  0  0
    1.3753    0.0047   -0.1153 C   0  0  2  0  0  0  0  0  0  0  0  0
    1.8299    0.8546   -1.1821 O   0  0  0  0  0  0  0  0  0  0  0  0
    2.0445    0.2740   -2.4031 C   0  0  0  0  0  0  0  0  0  0  0  0
    2.1516    1.1807   -3.4632 C   0  0  0  0  0  0  0  0  0  0  0  0
    2.3346    0.7246   -4.7648 C   0  0  0  0  0  0  0  0  0  0  0  0
    2.4213   -0.6421   -5.0041 C   0  0  0  0  0  0  0  0  0  0  0  0
    2.3364   -1.5442   -3.9433 C   0  0  0  0  0  0  0  0  0  0  0  0
    2.4655   -2.8611   -4.2876 O   0  0  0  0  0  0  0  0  0  0  0  0
    2.1448   -1.1069   -2.6225 C   0  0  0  0  0  0  0  0  0  0  0  0
    2.0812   -2.0562   -1.4632 C   0  0  2  0  0  0  0  0  0  0  0  0
    0.8386   -2.9534   -1.4148 C   0  0  0  0  0  0  0  0  0  0  0  0
    0.5575   -3.2136    0.0656 C   0  0  0  0  0  0  0  0  0  0  0  0
    1.5958   -2.4175    0.8502 C   0  0  0  0  0  0  0  0  0  0  0  0
    2.1096   -1.3492   -0.1105 C   0  0  2  0  0  0  0  0  0  0  0  0
   -1.0042    0.0514   -1.0964 C   0  0  0  0  0  0  0  0  0  0  0  0
   -2.3935    0.0710   -0.9356 C   0  0  0  0  0  0  0  0  0  0  0  0
   -4.7235    0.1212   -0.3212 H   0  0  0  0  0  0  0  0  0  0  0  0
   -2.5477    0.0827    2.4547 H   0  0  0  0  0  0  0  0  0  0  0  0
   -0.1000    0.0547    2.1856 H   0  0  0  0  0  0  0  0  0  0  0  0
    1.7362    0.5272    0.7824 H   0  0  0  0  0  0  0  0  0  0  0  0
    2.0773    2.2480   -3.2694 H   0  0  0  0  0  0  0  0  0  0  0  0
    2.4093    1.4302   -5.5871 H   0  0  0  0  0  0  0  0  0  0  0  0
    2.5679   -1.0094   -6.0165 H   0  0  0  0  0  0  0  0  0  0  0  0
    2.5321   -3.4041   -3.4887 H   0  0  0  0  0  0  0  0  0  0  0  0
    2.9708   -2.7022   -1.5030 H   0  0  0  0  0  0  0  0  0  0  0  0
   -0.0308   -2.4866   -1.8895 H   0  0  0  0  0  0  0  0  0  0  0  0
    1.0098   -3.8964   -1.9457 H   0  0  0  0  0  0  0  0  0  0  0  0
   -0.4587   -2.8943    0.3194 H   0  0  0  0  0  0  0  0  0  0  0  0
    0.6238   -4.2807    0.3033 H   0  0  0  0  0  0  0  0  0  0  0  0
    2.4238   -3.0884    1.1140 H   0  0  0  0  0  0  0  0  0  0  0  0
    1.2042   -2.0190    1.7894 H   0  0  0  0  0  0  0  0  0  0  0  0
    3.1597   -1.1246    0.1286 H   0  0  0  0  0  0  0  0  0  0  0  0
   -0.6081    0.0538   -2.1083 H   0  0  0  0  0  0  0  0  0  0  0  0
   -3.0265    0.0836   -1.8172 H   0  0  0  0  0  0  0  0  0  0  0  0
 22  1  1  0
  1  2  1  0
  2  3  2  0
  3 23  1  0
  3  4  1  0
  4 24  1  0
  4  5  2  0
  5  6  1  0
  6 25  1  1
  6  7  1  0
  7  8  1  0
  8  9  2  0
  9 26  1  0
  9 10  1  0
 10 27  1  0
 10 11  2  0
 11 28  1  0
 11 12  1  0
 12 13  1  0
 13 29  1  0
  8 14  1  0
 12 14  2  0
 14 15  1  0
 15 30  1  1
 15 16  1  0
 16 31  1  0
 16 32  1  0
 16 17  1  0
 17 33  1  0
 17 34  1  0
 17 18  1  0
 18 35  1  0
 18 36  1  0
  6 19  1  0
 15 19  1  0
 18 19  1  0
 19 37  1  1
  5 20  1  0
 20 38  1  0
  2 21  1  0
 20 21  2  0
 21 39  1  0
M  END
>  <conformer_energy>  (1) 
43.66

>  <ligand_smiles>  (1) 
Oc1ccc([C@@H]2Oc3cccc(O)c3[C@@H]3CCC[C@@H]32)cc1

>  <ligand_conf_name>  (1) 
MOL_0_isomer_0_conf_0

>  <ligand_molecule_name>  (1) 
MOL_0_isomer_0

$$$$
