MOL_0_isomer_0_conf_0
     RDKit          3D

 94 95  0  0  0  0  0  0  0  0999 V2000
   17.4865   -8.1635    5.3528 C   0  0  0  0  0  0  0  0  0  0  0  0
   18.7877   -7.6480    4.9398 C   0  0  0  0  0  0  0  0  0  0  0  0
   19.4079   -8.1480    3.8440 C   0  0  0  0  0  0  0  0  0  0  0  0
   18.9193   -9.2843    2.9838 C   0  0  0  0  0  0  0  0  0  0  0  0
   20.7068   -7.5558    3.3798 C   0  0  0  0  0  0  0  0  0  0  0  0
   21.2559   -7.9819    2.3650 O   0  0  0  0  0  0  0  0  0  0  0  0
   21.2871   -6.3850    4.1308 C   0  0  0  0  0  0  0  0  0  0  0  0
   20.9002   -6.4292    5.5964 C   0  0  0  0  0  0  0  0  0  0  0  0
   19.3714   -6.5187    5.8097 C   0  0  0  0  0  0  0  0  0  0  0  0
   19.1480   -6.7477    7.3241 C   0  0  0  0  0  0  0  0  0  0  0  0
   18.7048   -5.1828    5.4172 C   0  0  0  0  0  0  0  0  0  0  0  0
   16.3425   -7.8465    4.7194 C   0  0  0  0  0  0  0  0  0  0  0  0
   14.9980   -8.3275    5.0431 C   0  0  0  0  0  0  0  0  0  0  0  0
   13.9568   -7.8182    4.3518 C   0  0  0  0  0  0  0  0  0  0  0  0
   12.5639   -8.2113    4.4429 C   0  0  0  0  0  0  0  0  0  0  0  0
   11.5764   -7.5095    3.8633 C   0  0  0  0  0  0  0  0  0  0  0  0
   10.1530   -7.8630    3.8554 C   0  0  0  0  0  0  0  0  0  0  0  0
    9.2639   -6.9158    3.4873 C   0  0  0  0  0  0  0  0  0  0  0  0
    7.8249   -7.0565    3.3732 C   0  0  0  0  0  0  0  0  0  0  0  0
    7.0110   -6.0064    3.1716 C   0  0  0  0  0  0  0  0  0  0  0  0
    5.5742   -6.1424    3.0241 C   0  0  0  0  0  0  0  0  0  0  0  0
    4.6831   -5.1316    2.9582 C   0  0  0  0  0  0  0  0  0  0  0  0
    3.2677   -5.4586    2.7945 C   0  0  0  0  0  0  0  0  0  0  0  0
    2.2963   -4.8021    2.1354 C   0  0  0  0  0  0  0  0  0  0  0  0
    2.4396   -3.6219    1.3061 C   0  0  0  0  0  0  0  0  0  0  0  0
    1.4547   -2.8543    0.7857 C   0  0  0  0  0  0  0  0  0  0  0  0
    1.8643   -1.7641   -0.1046 C   0  0  0  0  0  0  0  0  0  0  0  0
    1.2571   -0.6462   -0.5372 C   0  0  0  0  0  0  0  0  0  0  0  0
   -0.0489   -0.0744   -0.2256 C   0  0  0  0  0  0  0  0  0  0  0  0
   -0.3123    0.4402    1.0011 C   0  0  0  0  0  0  0  0  0  0  0  0
    0.6421    0.5284    2.1605 C   0  0  0  0  0  0  0  0  0  0  0  0
   -1.6772    0.9832    1.3122 C   0  0  0  0  0  0  0  0  0  0  0  0
   -1.9254    1.4545    2.4209 O   0  0  0  0  0  0  0  0  0  0  0  0
   -2.7516    0.8806    0.2646 C   0  0  0  0  0  0  0  0  0  0  0  0
   -2.1524    1.0294   -1.1199 C   0  0  0  0  0  0  0  0  0  0  0  0
   -1.0481   -0.0162   -1.4038 C   0  0  0  0  0  0  0  0  0  0  0  0
   -0.3819    0.4084   -2.7349 C   0  0  0  0  0  0  0  0  0  0  0  0
   -1.6902   -1.4025   -1.6156 C   0  0  0  0  0  0  0  0  0  0  0  0
   -0.0091   -3.1114    1.0194 C   0  0  0  0  0  0  0  0  0  0  0  0
    5.0686   -3.6875    3.1635 C   0  0  0  0  0  0  0  0  0  0  0  0
    9.7922   -9.2791    4.2360 C   0  0  0  0  0  0  0  0  0  0  0  0
   14.8767   -9.3704    6.1274 C   0  0  0  0  0  0  0  0  0  0  0  0
   17.4949   -8.8155    6.2234 H   0  0  0  0  0  0  0  0  0  0  0  0
   18.7406   -8.9390    1.9585 H   0  0  0  0  0  0  0  0  0  0  0  0
   19.6716  -10.0836    2.9499 H   0  0  0  0  0  0  0  0  0  0  0  0
   17.9958   -9.7454    3.3413 H   0  0  0  0  0  0  0  0  0  0  0  0
   20.9542   -5.4609    3.6494 H   0  0  0  0  0  0  0  0  0  0  0  0
   22.3778   -6.4297    4.0498 H   0  0  0  0  0  0  0  0  0  0  0  0
   21.3109   -5.5466    6.1064 H   0  0  0  0  0  0  0  0  0  0  0  0
   21.3877   -7.3009    6.0548 H   0  0  0  0  0  0  0  0  0  0  0  0
   18.0842   -6.7246    7.5879 H   0  0  0  0  0  0  0  0  0  0  0  0
   19.5566   -7.7160    7.6456 H   0  0  0  0  0  0  0  0  0  0  0  0
   19.6413   -5.9628    7.9128 H   0  0  0  0  0  0  0  0  0  0  0  0
   17.6393   -5.1777    5.6797 H   0  0  0  0  0  0  0  0  0  0  0  0
   19.1729   -4.3397    5.9391 H   0  0  0  0  0  0  0  0  0  0  0  0
   18.7743   -4.9912    4.3398 H   0  0  0  0  0  0  0  0  0  0  0  0
   16.4128   -7.1654    3.8686 H   0  0  0  0  0  0  0  0  0  0  0  0
   14.1523   -7.0389    3.6143 H   0  0  0  0  0  0  0  0  0  0  0  0
   12.3325   -9.1215    4.9853 H   0  0  0  0  0  0  0  0  0  0  0  0
   11.8361   -6.5823    3.3515 H   0  0  0  0  0  0  0  0  0  0  0  0
    9.6375   -5.9191    3.2468 H   0  0  0  0  0  0  0  0  0  0  0  0
    7.3968   -8.0515    3.4512 H   0  0  0  0  0  0  0  0  0  0  0  0
    7.4314   -5.0052    3.1073 H   0  0  0  0  0  0  0  0  0  0  0  0
    5.2131   -7.1685    2.9337 H   0  0  0  0  0  0  0  0  0  0  0  0
    2.9675   -6.3888    3.2815 H   0  0  0  0  0  0  0  0  0  0  0  0
    1.3026   -5.2463    2.1809 H   0  0  0  0  0  0  0  0  0  0  0  0
    3.4697   -3.3700    1.0595 H   0  0  0  0  0  0  0  0  0  0  0  0
    2.8799   -1.8880   -0.4929 H   0  0  0  0  0  0  0  0  0  0  0  0
    1.8363   -0.0261   -1.2248 H   0  0  0  0  0  0  0  0  0  0  0  0
    0.2907   -0.1014    2.9867 H   0  0  0  0  0  0  0  0  0  0  0  0
    0.7093    1.5655    2.5214 H   0  0  0  0  0  0  0  0  0  0  0  0
    1.6617    0.2184    1.9121 H   0  0  0  0  0  0  0  0  0  0  0  0
   -3.2816   -0.0697    0.3889 H   0  0  0  0  0  0  0  0  0  0  0  0
   -3.4723    1.6892    0.4289 H   0  0  0  0  0  0  0  0  0  0  0  0
   -2.9544    0.9593   -1.8684 H   0  0  0  0  0  0  0  0  0  0  0  0
   -1.7319    2.0418   -1.2084 H   0  0  0  0  0  0  0  0  0  0  0  0
    0.3311   -0.3432   -3.0967 H   0  0  0  0  0  0  0  0  0  0  0  0
    0.1572    1.3564   -2.6225 H   0  0  0  0  0  0  0  0  0  0  0  0
   -1.1288    0.5476   -3.5256 H   0  0  0  0  0  0  0  0  0  0  0  0
   -0.9477   -2.1448   -1.9305 H   0  0  0  0  0  0  0  0  0  0  0  0
   -2.4607   -1.3671   -2.3965 H   0  0  0  0  0  0  0  0  0  0  0  0
   -2.1635   -1.7805   -0.7067 H   0  0  0  0  0  0  0  0  0  0  0  0
   -0.5508   -2.2089    1.2979 H   0  0  0  0  0  0  0  0  0  0  0  0
   -0.1975   -3.8072    1.8392 H   0  0  0  0  0  0  0  0  0  0  0  0
   -0.4618   -3.5319    0.1164 H   0  0  0  0  0  0  0  0  0  0  0  0
    5.4910   -3.2632    2.2474 H   0  0  0  0  0  0  0  0  0  0  0  0
    5.7997   -3.5871    3.9724 H   0  0  0  0  0  0  0  0  0  0  0  0
    4.2155   -3.0742    3.4731 H   0  0  0  0  0  0  0  0  0  0  0  0
    8.7473   -9.5298    4.0504 H   0  0  0  0  0  0  0  0  0  0  0  0
   10.3885   -9.9963    3.6606 H   0  0  0  0  0  0  0  0  0  0  0  0
    9.9793   -9.4449    5.3025 H   0  0  0  0  0  0  0  0  0  0  0  0
   15.4235  -10.2785    5.8490 H   0  0  0  0  0  0  0  0  0  0  0  0
   13.8459   -9.6648    6.3364 H   0  0  0  0  0  0  0  0  0  0  0  0
   15.2859   -8.9905    7.0711 H   0  0  0  0  0  0  0  0  0  0  0  0
 43  1  1  0
  1  2  1  0
  2  3  2  0
  3  4  1  0
  4 44  1  0
  4 45  1  0
  4 46  1  0
  3  5  1  0
  5  6  2  0
  5  7  1  0
  7 47  1  0
  7 48  1  0
  7  8  1  0
  8 49  1  0
  8 50  1  0
  2  9  1  0
  8  9  1  0
  9 10  1  0
 10 51  1  0
 10 52  1  0
 10 53  1  0
  9 11  1  0
 11 54  1  0
 11 55  1  0
 11 56  1  0
  1 12  2  0
 12 57  1  0
 12 13  1  0
 13 14  2  0
 14 58  1  0
 14 15  1  0
 15 59  1  0
 15 16  2  0
 16 60  1  0
 16 17  1  0
 17 18  2  0
 18 61  1  0
 18 19  1  0
 19 62  1  0
 19 20  2  0
 20 63  1  0
 20 21  1  0
 21 64  1  0
 21 22  2  0
 22 23  1  0
 23 65  1  0
 23 24  2  0
 24 66  1  0
 24 25  1  0
 25 67  1  0
 25 26  2  0
 26 27  1  0
 27 68  1  0
 27 28  2  0
 28 69  1  0
 28 29  1  0
 29 30  2  0
 30 31  1  0
 31 70  1  0
 31 71  1  0
 31 72  1  0
 30 32  1  0
 32 33  2  0
 32 34  1  0
 34 73  1  0
 34 74  1  0
 34 35  1  0
 35 75  1  0
 35 76  1  0
 29 36  1  0
 35 36  1  0
 36 37  1  0
 37 77  1  0
 37 78  1  0
 37 79  1  0
 36 38  1  0
 38 80  1  0
 38 81  1  0
 38 82  1  0
 26 39  1  0
 39 83  1  0
 39 84  1  0
 39 85  1  0
 22 40  1  0
 40 86  1  0
 40 87  1  0
 40 88  1  0
 17 41  1  0
 41 89  1  0
 41 90  1  0
 41 91  1  0
 13 42  1  0
 42 92  1  0
 42 93  1  0
 42 94  1  0
M  END
>  <conformer_energy>  (1) 
115.57

>  <ligand_smiles>  (1) 
CC1=C(/C=C/C(C)=C/C=C/C(C)=C/C=C/C=C(C)/C=C/C=C(C)/C=C/C2=C(C)C(=O)CCC2(C)C)C(C)(C)CCC1=O

>  <ligand_conf_name>  (1) 
MOL_0_isomer_0_conf_0

>  <ligand_molecule_name>  (1) 
MOL_0_isomer_0

$$$$
