1R9O - prepared_ligand2_conf_0
     RDKit          3D

 30 31  0  0  0  0  0  0  0  0999 V2000
    8.6331   -0.0553    0.1087 C   0  0  0  0  0  0  0  0  0  0  0  0
    7.9696    0.8488   -0.7165 C   0  0  0  0  0  0  0  0  0  0  0  0
    6.5725    0.8639   -0.7579 C   0  0  0  0  0  0  0  0  0  0  0  0
    5.8116   -0.0222    0.0230 C   0  0  0  0  0  0  0  0  0  0  0  0
    4.3378    0.0013   -0.0133 C   0  0  0  0  0  0  0  0  0  0  0  0
    3.5904    0.0723    1.1745 C   0  0  0  0  0  0  0  0  0  0  0  0
    2.1906    0.0964    1.1504 C   0  0  0  0  0  0  0  0  0  0  0  0
    1.4922    0.0497   -0.0629 C   0  0  0  0  0  0  0  0  0  0  0  0
   -0.0279    0.0623   -0.0683 C   0  0  1  0  0  0  0  0  0  0  0  0
   -0.5638    1.3219   -0.7835 C   0  0  0  0  0  0  0  0  0  0  0  0
   -0.8219    1.2001   -2.0162 O   0  0  0  0  0  0  0  0  0  0  0  0
   -0.7056    2.3365   -0.0383 O   0  0  0  0  0  0  0  0  0  0  0  0
   -0.5970   -1.2274   -0.6583 C   0  0  0  0  0  0  0  0  0  0  0  0
    2.2289   -0.0100   -1.2525 C   0  0  0  0  0  0  0  0  0  0  0  0
    3.6234   -0.0350   -1.2211 C   0  0  0  0  0  0  0  0  0  0  0  0
    4.2812   -0.1106   -2.3904 F   0  0  0  0  0  0  0  0  0  0  0  0
    6.5032   -0.9266    0.8478 C   0  0  0  0  0  0  0  0  0  0  0  0
    7.9005   -0.9443    0.8909 C   0  0  0  0  0  0  0  0  0  0  0  0
    9.7187   -0.0683    0.1395 H   0  0  0  0  0  0  0  0  0  0  0  0
    8.5336    1.5446   -1.3315 H   0  0  0  0  0  0  0  0  0  0  0  0
    6.0719    1.5806   -1.4073 H   0  0  0  0  0  0  0  0  0  0  0  0
    4.0935    0.1317    2.1366 H   0  0  0  0  0  0  0  0  0  0  0  0
    1.6424    0.1703    2.0872 H   0  0  0  0  0  0  0  0  0  0  0  0
   -0.3860    0.1168    0.9695 H   0  0  0  0  0  0  0  0  0  0  0  0
   -1.6923   -1.2084   -0.6399 H   0  0  0  0  0  0  0  0  0  0  0  0
   -0.2654   -2.0984   -0.0818 H   0  0  0  0  0  0  0  0  0  0  0  0
   -0.2895   -1.3848   -1.6980 H   0  0  0  0  0  0  0  0  0  0  0  0
    1.7196   -0.0221   -2.2138 H   0  0  0  0  0  0  0  0  0  0  0  0
    5.9497   -1.6379    1.4575 H   0  0  0  0  0  0  0  0  0  0  0  0
    8.4124   -1.6554    1.5329 H   0  0  0  0  0  0  0  0  0  0  0  0
 19  1  1  0
  1  2  2  0
  2 20  1  0
  2  3  1  0
  3 21  1  0
  3  4  2  0
  4  5  1  0
  5  6  2  0
  6 22  1  0
  6  7  1  0
  7 23  1  0
  7  8  2  0
  8  9  1  0
  9 24  1  1
  9 10  1  0
 10 11  2  0
 10 12  1  0
  9 13  1  0
 13 25  1  0
 13 26  1  0
 13 27  1  0
  8 14  1  0
 14 28  1  0
  5 15  1  0
 14 15  2  0
 15 16  1  0
  4 17  1  0
 17 29  1  0
  1 18  1  0
 17 18  2  0
 18 30  1  0
M  CHG  1  12  -1
M  END
>  <conformer_energy>  (1) 
79.32

>  <ligand_smiles>  (1) 
C[C@H](C(=O)[O-])c1ccc(-c2ccccc2)c(F)c1

>  <ligand_conf_name>  (1) 
1R9O - prepared_ligand2_conf_0

>  <ligand_molecule_name>  (1) 
1R9O - prepared_ligand2

$$$$
