1UML - prepared_ligand_conf_0
     RDKit          3D

 60 63  0  0  0  0  0  0  0  0999 V2000
   10.1006    2.6855    0.7879 O   0  0  0  0  0  0  0  0  0  0  0  0
    8.9039    3.0483    0.1052 C   0  0  0  0  0  0  0  0  0  0  0  0
    8.8469    2.3968   -1.2856 C   0  0  2  0  0  0  0  0  0  0  0  0
    7.7753    2.9839   -2.0783 N   0  0  0  0  0  0  0  0  0  0  0  0
    6.4303    2.8515   -1.8717 C   0  0  0  0  0  0  0  0  0  0  0  0
    5.7404    3.5279   -2.7633 N   0  0  0  0  0  0  0  0  0  0  0  0
    6.6807    4.1205   -3.5931 C   0  0  0  0  0  0  0  0  0  0  0  0
    6.3271    4.9658   -4.7296 C   0  0  0  0  0  0  0  0  0  0  0  0
    7.1408    5.5029   -5.4726 O   0  0  0  0  0  0  0  0  0  0  0  0
    4.9806    5.1105   -4.8982 N   0  0  0  0  0  0  0  0  0  0  0  0
    7.9518    3.7854   -3.1722 C   0  0  0  0  0  0  0  0  0  0  0  0
    8.7654    0.8617   -1.1864 C   0  0  0  0  0  0  0  0  0  0  0  0
    8.7650    0.1782   -2.5565 C   0  0  0  0  0  0  0  0  0  0  0  0
    8.7389   -1.2740   -2.4485 N   0  0  0  0  0  0  0  0  0  0  0  0
    9.8118   -2.0925   -2.6878 C   0  0  0  0  0  0  0  0  0  0  0  0
    9.3983   -3.3931   -2.5074 C   0  0  0  0  0  0  0  0  0  0  0  0
    8.0254   -3.3655   -2.1413 C   0  0  0  0  0  0  0  0  0  0  0  0
    7.0756   -4.3569   -1.8347 C   0  0  0  0  0  0  0  0  0  0  0  0
    5.7701   -3.9775   -1.4892 C   0  0  0  0  0  0  0  0  0  0  0  0
    5.3936   -2.6319   -1.4406 C   0  0  0  0  0  0  0  0  0  0  0  0
    4.0662   -2.3457   -1.0557 N   0  0  0  0  0  0  0  0  0  0  0  0
    3.5145   -1.0980   -0.8030 C   0  0  0  0  0  0  0  0  0  0  0  0
    4.1060   -0.0241   -0.8087 O   0  0  0  0  0  0  0  0  0  0  0  0
    2.0356   -1.2045   -0.4760 C   0  0  0  0  0  0  0  0  0  0  0  0
    1.4000    0.1642   -0.2504 C   0  0  0  0  0  0  0  0  0  0  0  0
   -0.0701    0.0392    0.0646 C   0  0  0  0  0  0  0  0  0  0  0  0
   -0.5025   -0.1124    1.3888 C   0  0  0  0  0  0  0  0  0  0  0  0
   -1.8611   -0.2502    1.6771 C   0  0  0  0  0  0  0  0  0  0  0  0
   -2.7982   -0.2416    0.6456 C   0  0  0  0  0  0  0  0  0  0  0  0
   -2.3780   -0.0956   -0.6751 C   0  0  0  0  0  0  0  0  0  0  0  0
   -1.0198    0.0423   -0.9656 C   0  0  0  0  0  0  0  0  0  0  0  0
    6.3222   -1.6413   -1.7729 C   0  0  0  0  0  0  0  0  0  0  0  0
    7.6325   -2.0272   -2.1097 C   0  0  0  0  0  0  0  0  0  0  0  0
   10.8172    3.2578    0.4613 H   0  0  0  0  0  0  0  0  0  0  0  0
    8.0567    2.7294    0.7223 H   0  0  0  0  0  0  0  0  0  0  0  0
    8.8671    4.1418    0.0386 H   0  0  0  0  0  0  0  0  0  0  0  0
    9.7855    2.6358   -1.8047 H   0  0  0  0  0  0  0  0  0  0  0  0
    6.0037    2.2561   -1.0717 H   0  0  0  0  0  0  0  0  0  0  0  0
    4.3546    4.6407   -4.2538 H   0  0  0  0  0  0  0  0  0  0  0  0
    4.6271    5.6740   -5.6545 H   0  0  0  0  0  0  0  0  0  0  0  0
    8.9237    4.0566   -3.5622 H   0  0  0  0  0  0  0  0  0  0  0  0
    7.8712    0.5742   -0.6205 H   0  0  0  0  0  0  0  0  0  0  0  0
    9.6201    0.4891   -0.6068 H   0  0  0  0  0  0  0  0  0  0  0  0
    9.6631    0.4528   -3.1221 H   0  0  0  0  0  0  0  0  0  0  0  0
    7.8972    0.4646   -3.1603 H   0  0  0  0  0  0  0  0  0  0  0  0
   10.7770   -1.6917   -2.9683 H   0  0  0  0  0  0  0  0  0  0  0  0
   10.0173   -4.2725   -2.6255 H   0  0  0  0  0  0  0  0  0  0  0  0
    7.3519   -5.4068   -1.8570 H   0  0  0  0  0  0  0  0  0  0  0  0
    5.0589   -4.7624   -1.2450 H   0  0  0  0  0  0  0  0  0  0  0  0
    3.4641   -3.1473   -0.9147 H   0  0  0  0  0  0  0  0  0  0  0  0
    1.9274   -1.8281    0.4202 H   0  0  0  0  0  0  0  0  0  0  0  0
    1.5365   -1.7245   -1.3033 H   0  0  0  0  0  0  0  0  0  0  0  0
    1.5322    0.7986   -1.1364 H   0  0  0  0  0  0  0  0  0  0  0  0
    1.9057    0.6917    0.5687 H   0  0  0  0  0  0  0  0  0  0  0  0
    0.2170   -0.1199    2.2045 H   0  0  0  0  0  0  0  0  0  0  0  0
   -2.1886   -0.3623    2.7073 H   0  0  0  0  0  0  0  0  0  0  0  0
   -3.8561   -0.3466    0.8711 H   0  0  0  0  0  0  0  0  0  0  0  0
   -3.1086   -0.0870   -1.4797 H   0  0  0  0  0  0  0  0  0  0  0  0
   -0.7071    0.1563   -2.0012 H   0  0  0  0  0  0  0  0  0  0  0  0
    6.0555   -0.5924   -1.7810 H   0  0  0  0  0  0  0  0  0  0  0  0
 34  1  1  0
  1  2  1  0
  2 35  1  0
  2 36  1  0
  2  3  1  0
  3 37  1  6
  3  4  1  0
  4  5  1  0
  5 38  1  0
  5  6  2  0
  6  7  1  0
  7  8  1  0
  8  9  2  0
  8 10  1  0
 10 39  1  0
 10 40  1  0
  4 11  1  0
  7 11  2  0
 11 41  1  0
  3 12  1  0
 12 42  1  0
 12 43  1  0
 12 13  1  0
 13 44  1  0
 13 45  1  0
 13 14  1  0
 14 15  1  0
 15 46  1  0
 15 16  2  0
 16 47  1  0
 16 17  1  0
 17 18  2  0
 18 48  1  0
 18 19  1  0
 19 49  1  0
 19 20  2  0
 20 21  1  0
 21 50  1  0
 21 22  1  0
 22 23  2  0
 22 24  1  0
 24 51  1  0
 24 52  1  0
 24 25  1  0
 25 53  1  0
 25 54  1  0
 25 26  1  0
 26 27  2  0
 27 55  1  0
 27 28  1  0
 28 56  1  0
 28 29  2  0
 29 57  1  0
 29 30  1  0
 30 58  1  0
 26 31  1  0
 30 31  2  0
 31 59  1  0
 20 32  1  0
 32 60  1  0
 17 33  1  0
 14 33  1  0
 32 33  2  0
M  END
>  <conformer_energy>  (1) 
25.40

>  <ligand_smiles>  (1) 
NC(=O)c1cn([C@@H](CO)CCn2ccc3ccc(NC(=O)CCc4ccccc4)cc32)cn1

>  <ligand_conf_name>  (1) 
1UML - prepared_ligand_conf_0

>  <ligand_molecule_name>  (1) 
1UML - prepared_ligand

$$$$
