MOL_0_isomer_0_conf_0
     RDKit          3D

 13 13  0  0  0  0  0  0  0  0999 V2000
    4.0821    0.1364   -0.1414 C   0  0  0  0  0  0  0  0  0  0  0  0
    3.5357    0.1091    1.0814 N   0  0  0  0  0  0  0  0  0  0  0  0
    2.1903    0.0367    1.1108 C   0  0  0  0  0  0  0  0  0  0  0  0
    1.4014   -0.0003   -0.0200 C   0  0  0  0  0  0  0  0  0  0  0  0
   -0.0150   -0.0804    0.0870 C   0  0  0  0  0  0  0  0  0  0  0  0
   -1.1707   -0.1272    0.1861 N   0  0  0  0  0  0  0  0  0  0  0  0
    2.0685    0.0508   -1.2312 C   0  0  0  0  0  0  0  0  0  0  0  0
    1.4263   -0.0236   -2.4514 N   0  0  0  0  0  0  0  0  0  0  0  0
    3.4105    0.1061   -1.3036 N   0  0  0  0  0  0  0  0  0  0  0  0
    5.1642    0.1866   -0.1991 H   0  0  0  0  0  0  0  0  0  0  0  0
    1.7576    0.0065    2.1081 H   0  0  0  0  0  0  0  0  0  0  0  0
    2.0579   -0.0030   -3.2438 H   0  0  0  0  0  0  0  0  0  0  0  0
    0.5156    0.3959   -2.5779 H   0  0  0  0  0  0  0  0  0  0  0  0
 10  1  1  0
  1  2  2  0
  2  3  1  0
  3 11  1  0
  3  4  2  0
  4  5  1  0
  5  6  3  0
  4  7  1  0
  7  8  1  0
  8 12  1  0
  8 13  1  0
  1  9  1  0
  7  9  2  0
M  END
>  <conformer_energy>  (1) 
-29.48

>  <ligand_smiles>  (1) 
N#Cc1cncnc1N

>  <ligand_conf_name>  (1) 
MOL_0_isomer_0_conf_0

>  <ligand_molecule_name>  (1) 
MOL_0_isomer_0

$$$$
