MOL_0_isomer_0_conf_0
     RDKit          3D

 33 32  0  0  0  0  0  0  0  0999 V2000
    3.3735    2.5439    0.0989 O   0  0  0  0  0  0  0  0  0  0  0  0
    3.4371    1.1383   -0.1831 C   0  0  1  0  0  0  0  0  0  0  0  0
    4.0795    0.4052    1.0063 C   0  0  0  0  0  0  0  0  0  0  0  0
    5.6129    0.4992    1.0999 C   0  0  0  0  0  0  0  0  0  0  0  0
    6.2510    1.7728    1.6521 C   0  0  1  0  0  0  0  0  0  0  0  0
    6.1848    3.0867    0.8291 C   0  0  0  0  0  0  0  0  0  0  0  0
    6.3598    4.0855    1.5926 O   0  0  0  0  0  0  0  0  0  0  0  0
    5.8219    2.9976   -0.3697 O   0  0  0  0  0  1  0  0  0  0  0  0
    5.7692    2.0578    3.0589 N   0  0  0  0  0  4  0  0  0  0  0  0
    1.9791    0.6816   -0.4145 C   0  0  2  0  0  0  0  0  0  0  0  0
    1.8686   -0.6795   -1.1268 C   0  0  0  0  0  0  0  0  0  0  0  0
    0.5674   -0.9689   -1.6196 O   0  0  0  0  0  0  0  0  0  0  0  0
   -0.7057   -0.7685   -0.6220 S   0  0  0  0  0  6  0  0  0  0  0  0
   -1.7353   -1.6142   -1.1895 O   0  0  0  0  0  0  0  0  0  0  0  0
   -0.1674   -1.1614    0.6737 O   0  0  0  0  0  0  0  0  0  0  0  0
   -0.9174    0.6777   -0.7511 O   0  0  0  0  0  1  0  0  0  0  0  0
    1.2888    1.7464   -1.2140 N   0  0  0  0  0  4  0  0  0  0  0  0
    4.2011    2.9370   -0.2954 H   0  0  0  0  0  0  0  0  0  0  0  0
    4.0189    0.9938   -1.1014 H   0  0  0  0  0  0  0  0  0  0  0  0
    3.6262    0.7437    1.9442 H   0  0  0  0  0  0  0  0  0  0  0  0
    3.8470   -0.6630    0.9172 H   0  0  0  0  0  0  0  0  0  0  0  0
    6.0357    0.2893    0.1090 H   0  0  0  0  0  0  0  0  0  0  0  0
    5.9426   -0.3299    1.7417 H   0  0  0  0  0  0  0  0  0  0  0  0
    7.3250    1.5778    1.7735 H   0  0  0  0  0  0  0  0  0  0  0  0
    6.1578    1.4628    3.7897 H   0  0  0  0  0  0  0  0  0  0  0  0
    6.1038    3.0417    3.1896 H   0  0  0  0  0  0  0  0  0  0  0  0
    4.7507    2.1479    3.1088 H   0  0  0  0  0  0  0  0  0  0  0  0
    1.4580    0.6910    0.5479 H   0  0  0  0  0  0  0  0  0  0  0  0
    2.1869   -1.4939   -0.4671 H   0  0  0  0  0  0  0  0  0  0  0  0
    2.5388   -0.6980   -1.9936 H   0  0  0  0  0  0  0  0  0  0  0  0
    1.4714    1.7153   -2.2173 H   0  0  0  0  0  0  0  0  0  0  0  0
    0.2527    1.6127   -1.0874 H   0  0  0  0  0  0  0  0  0  0  0  0
    1.5422    2.6646   -0.8274 H   0  0  0  0  0  0  0  0  0  0  0  0
 18  1  1  0
  1  2  1  0
  2 19  1  6
  2  3  1  0
  3 20  1  0
  3 21  1  0
  3  4  1  0
  4 22  1  0
  4 23  1  0
  4  5  1  0
  5 24  1  1
  5  6  1  0
  6  7  2  0
  6  8  1  0
  5  9  1  0
  9 25  1  0
  9 26  1  0
  9 27  1  0
  2 10  1  0
 10 28  1  1
 10 11  1  0
 11 29  1  0
 11 30  1  0
 11 12  1  0
 12 13  1  0
 13 14  2  0
 13 15  2  0
 13 16  1  0
 10 17  1  0
 17 31  1  0
 17 32  1  0
 17 33  1  0
M  CHG  4   8  -1   9   1  16  -1  17   1
M  END
>  <conformer_energy>  (1) 
-128.89

>  <ligand_smiles>  (1) 
[NH3+][C@@H](CC[C@H](O)[C@@H]([NH3+])COS(=O)(=O)[O-])C(=O)[O-]

>  <ligand_conf_name>  (1) 
MOL_0_isomer_0_conf_0

>  <ligand_molecule_name>  (1) 
MOL_0_isomer_0

$$$$
