MOL_0_isomer_0_conf_0
     RDKit          3D

 54 55  0  0  0  0  0  0  0  0999 V2000
    6.2731    0.9904    1.4924 C   0  0  0  0  0  0  0  0  0  0  0  0
    7.6906    0.9580    1.9414 C   0  0  0  0  0  0  0  0  0  0  0  0
    8.3031    2.0114    2.0965 O   0  0  0  0  0  0  0  0  0  0  0  0
    8.3683   -0.3348    2.2128 C   0  0  0  0  0  0  0  0  0  0  0  0
    7.7077   -1.3833    2.8660 C   0  0  0  0  0  0  0  0  0  0  0  0
    8.3596   -2.5977    3.1183 C   0  0  0  0  0  0  0  0  0  0  0  0
    7.6640   -3.7845    3.8101 C   0  0  0  0  0  0  0  0  0  0  0  0
    6.1884   -3.5147    4.1837 C   0  0  0  0  0  0  0  0  0  0  0  0
    7.6776   -5.0120    2.8733 C   0  0  0  0  0  0  0  0  0  0  0  0
    8.4095   -4.1326    5.1165 C   0  0  0  0  0  0  0  0  0  0  0  0
    9.7081   -2.7052    2.7105 C   0  0  0  0  0  0  0  0  0  0  0  0
   10.4120   -1.6568    2.0767 C   0  0  0  0  0  0  0  0  0  0  0  0
   11.8851   -1.8470    1.6743 C   0  0  0  0  0  0  0  0  0  0  0  0
   12.0037   -3.0217    0.6792 C   0  0  0  0  0  0  0  0  0  0  0  0
   12.5128   -0.6087    0.9948 C   0  0  0  0  0  0  0  0  0  0  0  0
   12.7307   -2.1555    2.9289 C   0  0  0  0  0  0  0  0  0  0  0  0
    9.7121   -0.4661    1.8418 C   0  0  0  0  0  0  0  0  0  0  0  0
    5.6817    0.0106    0.7914 C   0  0  0  0  0  0  0  0  0  0  0  0
    4.2822    0.0495    0.3413 C   0  0  0  0  0  0  0  0  0  0  0  0
    3.2637    0.6333    1.1043 C   0  0  0  0  0  0  0  0  0  0  0  0
    1.9360    0.5999    0.6629 C   0  0  0  0  0  0  0  0  0  0  0  0
    1.5896   -0.0254   -0.5442 C   0  0  0  0  0  0  0  0  0  0  0  0
    0.1483   -0.0695   -1.0155 C   0  0  0  0  0  0  0  0  0  0  0  0
   -0.7212    0.4842   -0.2710 O   0  0  0  0  0  0  0  0  0  0  0  0
   -0.0823   -0.6598   -2.1179 O   0  0  0  0  0  1  0  0  0  0  0  0
    2.6139   -0.6162   -1.2985 C   0  0  0  0  0  0  0  0  0  0  0  0
    3.9420   -0.5848   -0.8597 C   0  0  0  0  0  0  0  0  0  0  0  0
    5.7605    1.9207    1.7166 H   0  0  0  0  0  0  0  0  0  0  0  0
    6.6790   -1.2305    3.1797 H   0  0  0  0  0  0  0  0  0  0  0  0
    6.0961   -2.6775    4.8853 H   0  0  0  0  0  0  0  0  0  0  0  0
    5.7370   -4.3897    4.6667 H   0  0  0  0  0  0  0  0  0  0  0  0
    5.5830   -3.2875    3.2983 H   0  0  0  0  0  0  0  0  0  0  0  0
    8.6945   -5.3488    2.6441 H   0  0  0  0  0  0  0  0  0  0  0  0
    7.1833   -4.7864    1.9208 H   0  0  0  0  0  0  0  0  0  0  0  0
    7.1546   -5.8617    3.3275 H   0  0  0  0  0  0  0  0  0  0  0  0
    9.4426   -4.4476    4.9336 H   0  0  0  0  0  0  0  0  0  0  0  0
    7.9137   -4.9535    5.6476 H   0  0  0  0  0  0  0  0  0  0  0  0
    8.4436   -3.2701    5.7927 H   0  0  0  0  0  0  0  0  0  0  0  0
   10.2325   -3.6405    2.8993 H   0  0  0  0  0  0  0  0  0  0  0  0
   11.6831   -3.9725    1.1189 H   0  0  0  0  0  0  0  0  0  0  0  0
   13.0402   -3.1559    0.3480 H   0  0  0  0  0  0  0  0  0  0  0  0
   11.3887   -2.8474   -0.2116 H   0  0  0  0  0  0  0  0  0  0  0  0
   12.4989    0.2652    1.6564 H   0  0  0  0  0  0  0  0  0  0  0  0
   11.9865   -0.3458    0.0698 H   0  0  0  0  0  0  0  0  0  0  0  0
   13.5603   -0.7933    0.7275 H   0  0  0  0  0  0  0  0  0  0  0  0
   12.6428   -1.3528    3.6708 H   0  0  0  0  0  0  0  0  0  0  0  0
   13.7920   -2.2598    2.6744 H   0  0  0  0  0  0  0  0  0  0  0  0
   12.4259   -3.0881    3.4163 H   0  0  0  0  0  0  0  0  0  0  0  0
   10.1885    0.3863    1.3636 H   0  0  0  0  0  0  0  0  0  0  0  0
    6.2307   -0.8789    0.4932 H   0  0  0  0  0  0  0  0  0  0  0  0
    3.4748    1.1100    2.0566 H   0  0  0  0  0  0  0  0  0  0  0  0
    1.1513    1.0575    1.2640 H   0  0  0  0  0  0  0  0  0  0  0  0
    2.3620   -1.1084   -2.2369 H   0  0  0  0  0  0  0  0  0  0  0  0
    4.7011   -1.0598   -1.4750 H   0  0  0  0  0  0  0  0  0  0  0  0
 28  1  1  0
  1  2  1  0
  2  3  2  0
  2  4  1  0
  4  5  2  0
  5 29  1  0
  5  6  1  0
  6  7  1  0
  7  8  1  0
  8 30  1  0
  8 31  1  0
  8 32  1  0
  7  9  1  0
  9 33  1  0
  9 34  1  0
  9 35  1  0
  7 10  1  0
 10 36  1  0
 10 37  1  0
 10 38  1  0
  6 11  2  0
 11 39  1  0
 11 12  1  0
 12 13  1  0
 13 14  1  0
 14 40  1  0
 14 41  1  0
 14 42  1  0
 13 15  1  0
 15 43  1  0
 15 44  1  0
 15 45  1  0
 13 16  1  0
 16 46  1  0
 16 47  1  0
 16 48  1  0
  4 17  1  0
 12 17  2  0
 17 49  1  0
  1 18  2  0
 18 50  1  0
 18 19  1  0
 19 20  2  0
 20 51  1  0
 20 21  1  0
 21 52  1  0
 21 22  2  0
 22 23  1  0
 23 24  2  0
 23 25  1  0
 22 26  1  0
 26 53  1  0
 19 27  1  0
 26 27  2  0
 27 54  1  0
M  CHG  1  25  -1
M  END
>  <conformer_energy>  (1) 
117.31

>  <ligand_smiles>  (1) 
CC(C)(C)c1cc(C(=O)/C=C/c2ccc(C(=O)[O-])cc2)cc(C(C)(C)C)c1

>  <ligand_conf_name>  (1) 
MOL_0_isomer_0_conf_0

>  <ligand_molecule_name>  (1) 
MOL_0_isomer_0

$$$$
