MOL_0_isomer_0_conf_0
     RDKit          3D

 23 23  0  0  0  0  0  0  0  0999 V2000
    4.1403   -0.1033   -0.0176 C   0  0  0  0  0  0  0  0  0  0  0  0
    3.3750   -1.2713   -0.0068 C   0  0  0  0  0  0  0  0  0  0  0  0
    1.9680   -1.2300    0.0200 C   0  0  0  0  0  0  0  0  0  0  0  0
    1.1899   -2.5340    0.0151 C   0  0  0  0  0  0  0  0  0  0  0  0
   -0.0503   -2.5031    0.2981 O   0  0  0  0  0  0  0  0  0  0  0  0
    1.8430   -3.5894   -0.2712 O   0  0  0  0  0  1  0  0  0  0  0  0
    1.3632    0.0407    0.0425 C   0  0  0  0  0  0  0  0  0  0  0  0
   -0.0323    0.1446    0.0120 O   0  0  0  0  0  0  0  0  0  0  0  0
   -0.5970    0.1553    1.2807 C   0  0  0  0  0  0  0  0  0  0  0  0
   -0.0467    0.4589    2.3355 O   0  0  0  0  0  0  0  0  0  0  0  0
   -2.0699   -0.1071    1.1603 C   0  0  0  0  0  0  0  0  0  0  0  0
    2.1180    1.2311   -0.0055 C   0  0  0  0  0  0  0  0  0  0  0  0
    1.4529    2.5758   -0.0011 C   0  0  0  0  0  0  0  0  0  0  0  0
    3.5149    1.1416   -0.0157 C   0  0  0  0  0  0  0  0  0  0  0  0
    5.2237   -0.1733   -0.0311 H   0  0  0  0  0  0  0  0  0  0  0  0
    3.8734   -2.2403   -0.0196 H   0  0  0  0  0  0  0  0  0  0  0  0
   -2.5865    0.8219    0.9083 H   0  0  0  0  0  0  0  0  0  0  0  0
   -2.4452   -0.4932    2.1121 H   0  0  0  0  0  0  0  0  0  0  0  0
   -2.2656   -0.8620    0.3942 H   0  0  0  0  0  0  0  0  0  0  0  0
    2.1530    3.3661   -0.2928 H   0  0  0  0  0  0  0  0  0  0  0  0
    1.0752    2.8077    0.9993 H   0  0  0  0  0  0  0  0  0  0  0  0
    0.6246    2.6022   -0.7166 H   0  0  0  0  0  0  0  0  0  0  0  0
    4.1244    2.0406   -0.0260 H   0  0  0  0  0  0  0  0  0  0  0  0
 15  1  1  0
  1  2  2  0
  2 16  1  0
  2  3  1  0
  3  4  1  0
  4  5  2  0
  4  6  1  0
  3  7  2  0
  7  8  1  0
  8  9  1  0
  9 10  2  0
  9 11  1  0
 11 17  1  0
 11 18  1  0
 11 19  1  0
  7 12  1  0
 12 13  1  0
 13 20  1  0
 13 21  1  0
 13 22  1  0
  1 14  1  0
 12 14  2  0
 14 23  1  0
M  CHG  1   6  -1
M  END
>  <conformer_energy>  (1) 
43.91

>  <ligand_smiles>  (1) 
CC(=O)Oc1c(C)cccc1C(=O)[O-]

>  <ligand_conf_name>  (1) 
MOL_0_isomer_0_conf_0

>  <ligand_molecule_name>  (1) 
MOL_0_isomer_0

$$$$
