MOL_0_isomer_0_conf_0
     RDKit          3D

 54 58  0  0  0  0  0  0  0  0999 V2000
    0.6413    1.1734    2.4881 O   0  0  0  0  0  0  0  0  0  0  0  0
   -0.0251    0.7413    1.2989 C   0  0  1  0  0  0  0  0  0  0  0  0
   -0.7962   -0.5785    1.4618 C   0  0  2  0  0  0  0  0  0  0  0  0
    0.0014   -1.7566    1.3796 O   0  0  0  0  0  0  0  0  0  0  0  0
    0.4845   -2.1161    0.0897 C   0  0  2  0  0  0  0  0  0  0  0  0
   -0.5355   -2.6430   -0.9086 C   0  0  2  0  0  0  0  0  0  0  0  0
   -1.5159   -3.4933   -0.3039 O   0  0  0  0  0  0  0  0  0  0  0  0
    0.2999   -3.4874   -1.8836 C   0  0  2  0  0  0  0  0  0  0  0  0
    1.5591   -3.7765   -1.2086 O   0  0  0  0  0  0  0  0  0  0  0  0
    1.4269   -3.3127    0.1508 C   0  0  1  0  0  0  0  0  0  0  0  0
    2.7487   -2.9742    0.6436 N   0  0  0  0  0  0  0  0  0  0  0  0
    3.7491   -2.3562   -0.0651 C   0  0  0  0  0  0  0  0  0  0  0  0
    4.8284   -2.1578    0.6652 N   0  0  0  0  0  0  0  0  0  0  0  0
    4.5091   -2.6852    1.9009 C   0  0  0  0  0  0  0  0  0  0  0  0
    5.2351   -2.7830    3.1007 C   0  0  0  0  0  0  0  0  0  0  0  0
    6.5210   -2.3070    3.2375 N   0  0  0  0  0  0  0  0  0  0  0  0
    4.6494   -3.3679    4.1707 N   0  0  0  0  0  0  0  0  0  0  0  0
    3.3865   -3.8297    4.0262 C   0  0  0  0  0  0  0  0  0  0  0  0
    2.6007   -3.8019    2.9343 N   0  0  0  0  0  0  0  0  0  0  0  0
    3.2246   -3.2057    1.9053 C   0  0  0  0  0  0  0  0  0  0  0  0
    0.5863   -2.7679   -3.2030 C   0  0  0  0  0  0  0  0  0  0  0  0
   -0.3402   -3.1095   -4.2188 O   0  0  0  0  0  0  0  0  0  0  0  0
   -1.8810   -2.5545   -4.1438 P   0  0  2  0  0  5  0  0  0  0  0  0
   -2.4298   -3.0935   -2.8371 O   0  0  0  0  0  0  0  0  0  0  0  0
   -2.4923   -2.9551   -5.4632 O   0  0  0  0  0  1  0  0  0  0  0  0
   -1.5357   -1.0008   -4.0710 O   0  0  0  0  0  0  0  0  0  0  0  0
   -2.3600    0.3429   -3.8408 P   0  0  2  0  0  5  0  0  0  0  0  0
   -3.7065    0.3525   -4.5141 O   0  0  0  0  0  0  0  0  0  0  0  0
   -1.4084    1.5071   -4.0707 O   0  0  0  0  0  1  0  0  0  0  0  0
   -2.6100    0.2783   -2.2308 O   0  0  0  0  0  0  0  0  0  0  0  0
   -1.6326    0.9008   -1.4174 C   0  0  0  0  0  0  0  0  0  0  0  0
   -2.0481    0.8120    0.0525 C   0  0  1  0  0  0  0  0  0  0  0  0
   -1.8914   -0.5376    0.5470 O   0  0  0  0  0  0  0  0  0  0  0  0
   -1.1575    1.6884    0.9340 C   0  0  1  0  0  0  0  0  0  0  0  0
   -1.8288    2.0695    2.1561 O   0  0  0  0  0  0  0  0  0  0  0  0
   -0.0774    1.5324    3.0488 H   0  0  0  0  0  0  0  0  0  0  0  0
    0.7157    0.6840    0.4972 H   0  0  0  0  0  0  0  0  0  0  0  0
   -1.2302   -0.6070    2.4687 H   0  0  0  0  0  0  0  0  0  0  0  0
    1.0157   -1.2684   -0.3600 H   0  0  0  0  0  0  0  0  0  0  0  0
   -1.0606   -1.8195   -1.3878 H   0  0  0  0  0  0  0  0  0  0  0  0
   -2.1914   -3.5431   -1.0370 H   0  0  0  0  0  0  0  0  0  0  0  0
   -0.1743   -4.4557   -2.0830 H   0  0  0  0  0  0  0  0  0  0  0  0
    1.0316   -4.1304    0.7655 H   0  0  0  0  0  0  0  0  0  0  0  0
    3.6303   -2.0788   -1.1056 H   0  0  0  0  0  0  0  0  0  0  0  0
    6.9430   -1.8419    2.4465 H   0  0  0  0  0  0  0  0  0  0  0  0
    6.9624   -2.3799    4.1374 H   0  0  0  0  0  0  0  0  0  0  0  0
    2.9477   -4.2859    4.9085 H   0  0  0  0  0  0  0  0  0  0  0  0
    1.5728   -3.0691   -3.5732 H   0  0  0  0  0  0  0  0  0  0  0  0
    0.6377   -1.6813   -3.0753 H   0  0  0  0  0  0  0  0  0  0  0  0
   -1.5688    1.9580   -1.6959 H   0  0  0  0  0  0  0  0  0  0  0  0
   -0.6641    0.4227   -1.5924 H   0  0  0  0  0  0  0  0  0  0  0  0
   -3.1085    1.0657    0.1578 H   0  0  0  0  0  0  0  0  0  0  0  0
   -0.8139    2.6120    0.4599 H   0  0  0  0  0  0  0  0  0  0  0  0
   -2.7092    2.3988    1.8955 H   0  0  0  0  0  0  0  0  0  0  0  0
 36  1  1  0
  1  2  1  0
  2 37  1  6
  2  3  1  0
  3 38  1  1
  3  4  1  0
  4  5  1  0
  5 39  1  6
  5  6  1  0
  6 40  1  6
  6  7  1  0
  7 41  1  0
  6  8  1  0
  8 42  1  6
  8  9  1  0
  5 10  1  0
  9 10  1  0
 10 43  1  1
 10 11  1  0
 11 12  1  0
 12 44  1  0
 12 13  2  0
 13 14  1  0
 14 15  1  0
 15 16  1  0
 16 45  1  0
 16 46  1  0
 15 17  2  0
 17 18  1  0
 18 47  1  0
 18 19  2  0
 14 20  2  0
 11 20  1  0
 19 20  1  0
  8 21  1  0
 21 48  1  0
 21 49  1  0
 21 22  1  0
 22 23  1  0
 23 24  2  0
 23 25  1  6
 23 26  1  0
 26 27  1  0
 27 28  2  0
 27 29  1  1
 27 30  1  0
 30 31  1  0
 31 50  1  0
 31 51  1  0
 31 32  1  0
 32 52  1  6
  3 33  1  0
 32 33  1  0
  2 34  1  0
 32 34  1  0
 34 53  1  6
 34 35  1  0
 35 54  1  0
M  CHG  2  25  -1  29  -1
M  END
>  <conformer_energy>  (1) 
-11.84

>  <ligand_smiles>  (1) 
Nc1ncnc2c1ncn2[C@@H]1O[C@@H]2CO[P@](=O)([O-])O[P@](=O)([O-])OC[C@H]3O[C@@H](O[C@@H]1[C@@H]2O)[C@H](O)[C@@H]3O

>  <ligand_conf_name>  (1) 
MOL_0_isomer_0_conf_0

>  <ligand_molecule_name>  (1) 
MOL_0_isomer_0

$$$$
