MOL_0_isomer_0_conf_0
     RDKit          3D

 67 73  0  0  0  0  0  0  0  0999 V2000
   -0.9061   -1.9020    3.9863 O   0  0  0  0  0  0  0  0  0  0  0  0
   -0.3109   -0.7496    3.3462 C   0  0  1  0  0  0  0  0  0  0  0  0
    0.4083   -1.1893    2.0823 C   0  0  1  0  0  0  0  0  0  0  0  0
    1.0988   -2.3853    2.4076 O   0  0  0  0  0  0  0  0  0  0  0  0
    2.3933   -2.7663    1.5075 P   0  0  2  0  0  5  0  0  0  0  0  0
    1.9427   -2.7147    0.0748 O   0  0  0  0  0  0  0  0  0  0  0  0
    3.0138   -3.9944    2.1188 O   0  0  0  0  0  1  0  0  0  0  0  0
    3.3325   -1.4766    1.8197 O   0  0  0  0  0  0  0  0  0  0  0  0
    3.8149   -1.3518    3.1514 C   0  0  0  0  0  0  0  0  0  0  0  0
    4.2403    0.0782    3.4890 C   0  0  1  0  0  0  0  0  0  0  0  0
    5.6104    0.3381    3.0799 O   0  0  0  0  0  0  0  0  0  0  0  0
    5.7062    1.7615    2.7880 C   0  0  1  0  0  0  0  0  0  0  0  0
    6.1839    1.8893    1.4186 N   0  0  0  0  0  0  0  0  0  0  0  0
    7.4299    1.5213    0.9594 C   0  0  0  0  0  0  0  0  0  0  0  0
    7.5500    1.6641   -0.3524 N   0  0  0  0  0  0  0  0  0  0  0  0
    6.3068    2.0908   -0.7572 C   0  0  0  0  0  0  0  0  0  0  0  0
    5.7223    2.2865   -2.0743 C   0  0  0  0  0  0  0  0  0  0  0  0
    6.3250    2.2023   -3.1469 O   0  0  0  0  0  0  0  0  0  0  0  0
    4.3631    2.5961   -2.0188 N   0  0  0  0  0  0  0  0  0  0  0  0
    3.6694    2.8193   -0.8467 C   0  0  0  0  0  0  0  0  0  0  0  0
    2.3580    3.1288   -0.9031 N   0  0  0  0  0  0  0  0  0  0  0  0
    4.2231    2.7416    0.3240 N   0  0  0  0  0  0  0  0  0  0  0  0
    5.4929    2.3112    0.3238 C   0  0  0  0  0  0  0  0  0  0  0  0
    4.3357    2.3821    3.1352 C   0  0  2  0  0  0  0  0  0  0  0  0
    4.2896    2.7585    4.5338 O   0  0  0  0  0  0  0  0  0  0  0  0
    3.4053    1.1989    2.8709 C   0  0  2  0  0  0  0  0  0  0  0  0
    2.1044    1.3048    3.4208 O   0  0  0  0  0  0  0  0  0  0  0  0
    1.3080    2.6901    3.1447 P   0  0  1  0  0  5  0  0  0  0  0  0
    1.7793    3.6479    4.2089 O   0  0  0  0  0  0  0  0  0  0  0  0
    1.3844    3.0299    1.6778 O   0  0  0  0  0  1  0  0  0  0  0  0
   -0.1979    2.1850    3.4896 O   0  0  0  0  0  0  0  0  0  0  0  0
   -0.9294    1.5677    2.4447 C   0  0  0  0  0  0  0  0  0  0  0  0
   -1.3972    0.1523    2.8020 C   0  0  1  0  0  0  0  0  0  0  0  0
   -1.8457   -0.4989    1.5886 O   0  0  0  0  0  0  0  0  0  0  0  0
   -0.7598   -1.3530    1.0964 C   0  0  1  0  0  0  0  0  0  0  0  0
   -0.5661   -0.9987   -0.2980 N   0  0  0  0  0  0  0  0  0  0  0  0
    0.3739   -0.1650   -0.8533 C   0  0  0  0  0  0  0  0  0  0  0  0
    0.1752    0.0362   -2.1437 N   0  0  0  0  0  0  0  0  0  0  0  0
   -0.9087   -0.7643   -2.4473 C   0  0  0  0  0  0  0  0  0  0  0  0
   -1.5883   -1.0138   -3.6546 C   0  0  0  0  0  0  0  0  0  0  0  0
   -1.2067   -0.4566   -4.8550 N   0  0  0  0  0  0  0  0  0  0  0  0
   -2.6727   -1.8249   -3.6443 N   0  0  0  0  0  0  0  0  0  0  0  0
   -3.0413   -2.3595   -2.4601 C   0  0  0  0  0  0  0  0  0  0  0  0
   -2.4804   -2.1939   -1.2485 N   0  0  0  0  0  0  0  0  0  0  0  0
   -1.4012   -1.3929   -1.3163 C   0  0  0  0  0  0  0  0  0  0  0  0
   -0.2218   -2.6016    3.9025 H   0  0  0  0  0  0  0  0  0  0  0  0
    0.3384   -0.2919    4.0924 H   0  0  0  0  0  0  0  0  0  0  0  0
    1.1055   -0.4112    1.7674 H   0  0  0  0  0  0  0  0  0  0  0  0
    4.6611   -2.0386    3.2678 H   0  0  0  0  0  0  0  0  0  0  0  0
    3.0235   -1.6477    3.8491 H   0  0  0  0  0  0  0  0  0  0  0  0
    4.2379    0.1536    4.5856 H   0  0  0  0  0  0  0  0  0  0  0  0
    6.4946    2.1740    3.4280 H   0  0  0  0  0  0  0  0  0  0  0  0
    8.1927    1.1325    1.6216 H   0  0  0  0  0  0  0  0  0  0  0  0
    3.8850    2.6857   -2.8965 H   0  0  0  0  0  0  0  0  0  0  0  0
    1.7513    2.8783   -1.6662 H   0  0  0  0  0  0  0  0  0  0  0  0
    1.9054    3.1853    0.0344 H   0  0  0  0  0  0  0  0  0  0  0  0
    4.1030    3.2997    2.5923 H   0  0  0  0  0  0  0  0  0  0  0  0
    3.3818    3.1619    4.6392 H   0  0  0  0  0  0  0  0  0  0  0  0
    3.2952    1.0185    1.7978 H   0  0  0  0  0  0  0  0  0  0  0  0
   -0.3677    1.5430    1.5082 H   0  0  0  0  0  0  0  0  0  0  0  0
   -1.8061    2.1913    2.2329 H   0  0  0  0  0  0  0  0  0  0  0  0
   -2.2469    0.2024    3.4919 H   0  0  0  0  0  0  0  0  0  0  0  0
   -1.1238   -2.3879    1.1128 H   0  0  0  0  0  0  0  0  0  0  0  0
    1.1807    0.2824   -0.2787 H   0  0  0  0  0  0  0  0  0  0  0  0
   -0.3763    0.1191   -4.8613 H   0  0  0  0  0  0  0  0  0  0  0  0
   -1.7705   -0.6329   -5.6663 H   0  0  0  0  0  0  0  0  0  0  0  0
   -3.9039   -3.0223   -2.4922 H   0  0  0  0  0  0  0  0  0  0  0  0
 46  1  1  0
  1  2  1  0
  2 47  1  1
  2  3  1  0
  3 48  1  6
  3  4  1  0
  4  5  1  0
  5  6  2  0
  5  7  1  1
  5  8  1  0
  8  9  1  0
  9 49  1  0
  9 50  1  0
  9 10  1  0
 10 51  1  1
 10 11  1  0
 11 12  1  0
 12 52  1  1
 12 13  1  0
 13 14  1  0
 14 53  1  0
 14 15  2  0
 15 16  1  0
 16 17  1  0
 17 18  2  0
 17 19  1  0
 19 54  1  0
 19 20  1  0
 20 21  1  0
 21 55  1  0
 21 56  1  0
 20 22  2  0
 16 23  2  0
 13 23  1  0
 22 23  1  0
 12 24  1  0
 24 57  1  6
 24 25  1  0
 25 58  1  0
 10 26  1  0
 24 26  1  0
 26 59  1  6
 26 27  1  0
 27 28  1  0
 28 29  2  0
 28 30  1  6
 28 31  1  0
 31 32  1  0
 32 60  1  0
 32 61  1  0
  2 33  1  0
 32 33  1  0
 33 62  1  1
 33 34  1  0
  3 35  1  0
 34 35  1  0
 35 63  1  6
 35 36  1  0
 36 37  1  0
 37 64  1  0
 37 38  2  0
 38 39  1  0
 39 40  1  0
 40 41  1  0
 41 65  1  0
 41 66  1  0
 40 42  2  0
 42 43  1  0
 43 67  1  0
 43 44  2  0
 39 45  2  0
 36 45  1  0
 44 45  1  0
M  CHG  2   7  -1  30  -1
M  END
>  <conformer_energy>  (1) 
-144.34

>  <ligand_smiles>  (1) 
Nc1nc2c(ncn2[C@@H]2O[C@@H]3CO[P@@](=O)([O-])O[C@@H]4[C@H](O)[C@@H](CO[P@](=O)([O-])O[C@H]3[C@H]2O)O[C@H]4n2cnc3c(N)ncnc32)c(=O)[nH]1

>  <ligand_conf_name>  (1) 
MOL_0_isomer_0_conf_0

>  <ligand_molecule_name>  (1) 
MOL_0_isomer_0

$$$$
