MOL_0_isomer_0_conf_0
     RDKit          3D

 74 77  0  0  0  0  0  0  0  0999 V2000
   -3.2261   -7.9734    2.4825 C   0  0  0  0  0  0  0  0  0  0  0  0
   -2.7794   -7.0883    1.5187 C   0  0  0  0  0  0  0  0  0  0  0  0
   -1.8192   -7.4996    0.5920 C   0  0  0  0  0  0  0  0  0  0  0  0
   -1.2827   -8.8099    0.5964 C   0  0  0  0  0  0  0  0  0  0  0  0
   -1.7399   -9.7179    1.5970 C   0  0  0  0  0  0  0  0  0  0  0  0
   -2.7103   -9.2673    2.5233 C   0  0  0  0  0  0  0  0  0  0  0  0
   -1.2234  -11.0250    1.6398 C   0  0  0  0  0  0  0  0  0  0  0  0
   -1.5968  -11.9685    2.5835 N   0  0  0  0  0  0  0  0  0  0  0  0
   -0.2523  -11.3783    0.7167 C   0  0  0  0  0  0  0  0  0  0  0  0
    0.1915  -10.4821   -0.2578 C   0  0  0  0  0  0  0  0  0  0  0  0
    1.2319  -10.9681   -1.2359 C   0  0  0  0  0  0  0  0  0  0  0  0
   -0.3411   -9.2240   -0.3236 N   0  0  0  0  0  4  0  0  0  0  0  0
    0.0859   -8.3113   -1.4321 C   0  0  0  0  0  0  0  0  0  0  0  0
    1.2551   -7.4363   -0.9766 C   0  0  0  0  0  0  0  0  0  0  0  0
    1.6945   -6.4750   -2.0884 C   0  0  0  0  0  0  0  0  0  0  0  0
    3.1248   -5.9591   -1.9066 C   0  0  0  0  0  0  0  0  0  0  0  0
    3.3448   -5.0210   -0.7168 C   0  0  0  0  0  0  0  0  0  0  0  0
    2.9244   -3.5721   -0.9986 C   0  0  0  0  0  0  0  0  0  0  0  0
    3.3819   -2.6467    0.1356 C   0  0  0  0  0  0  0  0  0  0  0  0
    3.2984   -1.1559   -0.2066 C   0  0  0  0  0  0  0  0  0  0  0  0
    1.8719   -0.6072   -0.2444 C   0  0  0  0  0  0  0  0  0  0  0  0
    1.8835    0.9039   -0.4925 C   0  0  0  0  0  0  0  0  0  0  0  0
    0.5149    1.4710   -0.2786 N   0  0  0  0  0  4  0  0  0  0  0  0
    0.1996    1.9872    0.9482 C   0  0  0  0  0  0  0  0  0  0  0  0
    1.1711    1.9651    2.1021 C   0  0  0  0  0  0  0  0  0  0  0  0
   -1.0426    2.5875    1.1557 C   0  0  0  0  0  0  0  0  0  0  0  0
   -1.9837    2.6743    0.1421 C   0  0  0  0  0  0  0  0  0  0  0  0
   -3.2080    3.2532    0.4409 N   0  0  0  0  0  0  0  0  0  0  0  0
   -1.6792    2.0944   -1.1021 C   0  0  0  0  0  0  0  0  0  0  0  0
   -2.6059    2.0916   -2.1709 C   0  0  0  0  0  0  0  0  0  0  0  0
   -2.3030    1.5297   -3.4092 C   0  0  0  0  0  0  0  0  0  0  0  0
   -1.0662    0.9470   -3.6124 C   0  0  0  0  0  0  0  0  0  0  0  0
   -0.1309    0.9263   -2.5757 C   0  0  0  0  0  0  0  0  0  0  0  0
   -0.4024    1.4929   -1.3079 C   0  0  0  0  0  0  0  0  0  0  0  0
   -3.9746   -7.6621    3.2105 H   0  0  0  0  0  0  0  0  0  0  0  0
   -3.1799   -6.0766    1.4886 H   0  0  0  0  0  0  0  0  0  0  0  0
   -1.5097   -6.7440   -0.1224 H   0  0  0  0  0  0  0  0  0  0  0  0
   -3.0893   -9.9216    3.3058 H   0  0  0  0  0  0  0  0  0  0  0  0
   -1.2174  -12.9089    2.5712 H   0  0  0  0  0  0  0  0  0  0  0  0
   -2.3408  -11.8124    3.2510 H   0  0  0  0  0  0  0  0  0  0  0  0
    0.1700  -12.3823    0.7513 H   0  0  0  0  0  0  0  0  0  0  0  0
    1.6933  -11.9025   -0.8958 H   0  0  0  0  0  0  0  0  0  0  0  0
    2.0404  -10.2431   -1.3469 H   0  0  0  0  0  0  0  0  0  0  0  0
    0.7697  -11.1594   -2.2088 H   0  0  0  0  0  0  0  0  0  0  0  0
    0.3577   -8.9162   -2.3022 H   0  0  0  0  0  0  0  0  0  0  0  0
   -0.7752   -7.7248   -1.7654 H   0  0  0  0  0  0  0  0  0  0  0  0
    0.9799   -6.8632   -0.0852 H   0  0  0  0  0  0  0  0  0  0  0  0
    2.0938   -8.0748   -0.6793 H   0  0  0  0  0  0  0  0  0  0  0  0
    1.6563   -6.9999   -3.0515 H   0  0  0  0  0  0  0  0  0  0  0  0
    0.9899   -5.6381   -2.1579 H   0  0  0  0  0  0  0  0  0  0  0  0
    3.7905   -6.8237   -1.7922 H   0  0  0  0  0  0  0  0  0  0  0  0
    3.4409   -5.4564   -2.8288 H   0  0  0  0  0  0  0  0  0  0  0  0
    4.4202   -5.0279   -0.4930 H   0  0  0  0  0  0  0  0  0  0  0  0
    2.8404   -5.3953    0.1806 H   0  0  0  0  0  0  0  0  0  0  0  0
    1.8379   -3.5118   -1.1198 H   0  0  0  0  0  0  0  0  0  0  0  0
    3.3777   -3.2407   -1.9401 H   0  0  0  0  0  0  0  0  0  0  0  0
    4.4301   -2.8673    0.3726 H   0  0  0  0  0  0  0  0  0  0  0  0
    2.8052   -2.8579    1.0438 H   0  0  0  0  0  0  0  0  0  0  0  0
    3.8635   -0.6056    0.5566 H   0  0  0  0  0  0  0  0  0  0  0  0
    3.7985   -0.9645   -1.1641 H   0  0  0  0  0  0  0  0  0  0  0  0
    1.3701   -0.8293    0.7042 H   0  0  0  0  0  0  0  0  0  0  0  0
    1.2944   -1.1143   -1.0240 H   0  0  0  0  0  0  0  0  0  0  0  0
    2.5836    1.4152    0.1742 H   0  0  0  0  0  0  0  0  0  0  0  0
    2.2283    1.1631   -1.4975 H   0  0  0  0  0  0  0  0  0  0  0  0
    0.6746    2.2092    3.0476 H   0  0  0  0  0  0  0  0  0  0  0  0
    1.9610    2.7040    1.9387 H   0  0  0  0  0  0  0  0  0  0  0  0
    1.6110    0.9729    2.2285 H   0  0  0  0  0  0  0  0  0  0  0  0
   -1.2784    3.0064    2.1339 H   0  0  0  0  0  0  0  0  0  0  0  0
   -3.8857    3.4790   -0.2760 H   0  0  0  0  0  0  0  0  0  0  0  0
   -3.3684    3.7074    1.3340 H   0  0  0  0  0  0  0  0  0  0  0  0
   -3.5938    2.5338   -2.0608 H   0  0  0  0  0  0  0  0  0  0  0  0
   -3.0386    1.5516   -4.2121 H   0  0  0  0  0  0  0  0  0  0  0  0
   -0.8281    0.5095   -4.5808 H   0  0  0  0  0  0  0  0  0  0  0  0
    0.8115    0.4429   -2.8108 H   0  0  0  0  0  0  0  0  0  0  0  0
 35  1  1  0
  1  2  2  0
  2 36  1  0
  2  3  1  0
  3 37  1  0
  3  4  2  0
  4  5  1  0
  1  6  1  0
  5  6  2  0
  6 38  1  0
  5  7  1  0
  7  8  1  0
  8 39  1  0
  8 40  1  0
  7  9  2  0
  9 41  1  0
  9 10  1  0
 10 11  1  0
 11 42  1  0
 11 43  1  0
 11 44  1  0
  4 12  1  0
 10 12  2  0
 12 13  1  0
 13 45  1  0
 13 46  1  0
 13 14  1  0
 14 47  1  0
 14 48  1  0
 14 15  1  0
 15 49  1  0
 15 50  1  0
 15 16  1  0
 16 51  1  0
 16 52  1  0
 16 17  1  0
 17 53  1  0
 17 54  1  0
 17 18  1  0
 18 55  1  0
 18 56  1  0
 18 19  1  0
 19 57  1  0
 19 58  1  0
 19 20  1  0
 20 59  1  0
 20 60  1  0
 20 21  1  0
 21 61  1  0
 21 62  1  0
 21 22  1  0
 22 63  1  0
 22 64  1  0
 22 23  1  0
 23 24  2  0
 24 25  1  0
 25 65  1  0
 25 66  1  0
 25 67  1  0
 24 26  1  0
 26 68  1  0
 26 27  2  0
 27 28  1  0
 28 69  1  0
 28 70  1  0
 27 29  1  0
 29 30  1  0
 30 71  1  0
 30 31  2  0
 31 72  1  0
 31 32  1  0
 32 73  1  0
 32 33  2  0
 33 74  1  0
 29 34  2  0
 23 34  1  0
 33 34  1  0
M  CHG  2  12   1  23   1
M  END
>  <conformer_energy>  (1) 
169.60

>  <ligand_smiles>  (1) 
Cc1cc(N)c2ccccc2[n+]1CCCCCCCCCC[n+]1c(C)cc(N)c2ccccc21

>  <ligand_conf_name>  (1) 
MOL_0_isomer_0_conf_0

>  <ligand_molecule_name>  (1) 
MOL_0_isomer_0

$$$$
