MOL_0_isomer_0_conf_0
     RDKit          3D

 50 53  0  0  0  0  0  0  0  0999 V2000
    3.8075    0.4185   -1.5093 C   0  0  0  0  0  0  0  0  0  0  0  0
    2.4192    0.5174   -1.6034 C   0  0  0  0  0  0  0  0  0  0  0  0
    1.6848    1.1002   -0.5618 C   0  0  0  0  0  0  0  0  0  0  0  0
    0.2241    0.7554   -0.3028 C   0  0  0  0  0  0  0  0  0  0  0  0
    0.2177   -0.3404    0.7917 C   0  0  0  0  0  0  0  0  0  0  0  0
   -1.1651   -0.8403    1.1318 C   0  0  0  0  0  0  0  0  0  0  0  0
   -1.8271   -1.2941   -0.1246 N   0  0  0  0  0  4  0  0  0  0  0  0
   -1.9606   -0.2124   -1.1403 C   0  0  0  0  0  0  0  0  0  0  0  0
   -0.5769    0.2823   -1.5291 C   0  0  0  0  0  0  0  0  0  0  0  0
    2.3797    1.7884    0.4480 C   0  0  0  0  0  0  0  0  0  0  0  0
    3.7650    1.6780    0.5468 C   0  0  0  0  0  0  0  0  0  0  0  0
    4.4718    0.8956   -0.3737 C   0  0  0  0  0  0  0  0  0  0  0  0
    5.8304    0.4395   -0.0677 C   0  0  0  0  0  0  0  0  0  0  0  0
    6.8967    1.3014   -0.3609 C   0  0  0  0  0  0  0  0  0  0  0  0
    8.2011    0.9745    0.0016 C   0  0  0  0  0  0  0  0  0  0  0  0
    8.5036   -0.2626    0.5994 C   0  0  0  0  0  0  0  0  0  0  0  0
    9.9421   -0.5086    1.0060 C   0  0  0  0  0  0  0  0  0  0  0  0
   10.6961   -1.0873    0.0375 F   0  0  0  0  0  0  0  0  0  0  0  0
   10.0769   -1.2257    2.1510 F   0  0  0  0  0  0  0  0  0  0  0  0
   10.5830    0.6738    1.2773 F   0  0  0  0  0  0  0  0  0  0  0  0
    7.4513   -1.1845    0.8043 C   0  0  0  0  0  0  0  0  0  0  0  0
    7.8331   -2.9397    0.9152 S   0  0  0  0  0  6  0  0  0  0  0  0
    9.2439   -3.1125    0.6603 O   0  0  0  0  0  0  0  0  0  0  0  0
    6.8845   -3.6508    0.0897 O   0  0  0  0  0  0  0  0  0  0  0  0
    7.5572   -3.3522    2.5181 N   0  0  0  0  0  0  0  0  0  0  0  0
    6.1067   -0.8003    0.5726 C   0  0  0  0  0  0  0  0  0  0  0  0
    4.9034   -1.6790    1.2160 C   0  0  0  0  0  0  0  0  0  0  0  0
    3.5958   -1.6617    0.8626 N   0  0  0  0  0  0  0  0  0  0  0  0
    2.9665   -2.4554    1.7577 N   0  0  0  0  0  0  0  0  0  0  0  0
    3.8639   -2.9121    2.6484 N   0  0  0  0  0  0  0  0  0  0  0  0
    5.0837   -2.4279    2.3352 N   0  0  0  0  0  2  0  0  0  0  0  0
    4.3463   -0.1752   -2.2451 H   0  0  0  0  0  0  0  0  0  0  0  0
    1.9463   -0.0106   -2.4238 H   0  0  0  0  0  0  0  0  0  0  0  0
   -0.2735    1.6525    0.0913 H   0  0  0  0  0  0  0  0  0  0  0  0
    0.8124   -1.1950    0.4465 H   0  0  0  0  0  0  0  0  0  0  0  0
    0.6913    0.0216    1.7122 H   0  0  0  0  0  0  0  0  0  0  0  0
   -1.1299   -1.7022    1.8046 H   0  0  0  0  0  0  0  0  0  0  0  0
   -1.7945   -0.0611    1.5737 H   0  0  0  0  0  0  0  0  0  0  0  0
   -2.7438   -1.6981    0.1007 H   0  0  0  0  0  0  0  0  0  0  0  0
   -1.2633   -2.0700   -0.5076 H   0  0  0  0  0  0  0  0  0  0  0  0
   -2.4838   -0.6451   -1.9983 H   0  0  0  0  0  0  0  0  0  0  0  0
   -2.5789    0.5787   -0.7036 H   0  0  0  0  0  0  0  0  0  0  0  0
   -0.0663   -0.5442   -2.0371 H   0  0  0  0  0  0  0  0  0  0  0  0
   -0.6628    1.0973   -2.2576 H   0  0  0  0  0  0  0  0  0  0  0  0
    1.8449    2.2678    1.2648 H   0  0  0  0  0  0  0  0  0  0  0  0
    4.2664    2.0745    1.4270 H   0  0  0  0  0  0  0  0  0  0  0  0
    6.7035    2.2631   -0.8346 H   0  0  0  0  0  0  0  0  0  0  0  0
    8.9948    1.6963   -0.1949 H   0  0  0  0  0  0  0  0  0  0  0  0
    7.1744   -2.5599    3.0476 H   0  0  0  0  0  0  0  0  0  0  0  0
    6.7440   -3.9901    2.5011 H   0  0  0  0  0  0  0  0  0  0  0  0
 32  1  1  0
  1  2  2  0
  2 33  1  0
  2  3  1  0
  3  4  1  0
  4 34  1  0
  4  5  1  0
  5 35  1  0
  5 36  1  0
  5  6  1  0
  6 37  1  0
  6 38  1  0
  6  7  1  0
  7 39  1  0
  7 40  1  0
  7  8  1  0
  8 41  1  0
  8 42  1  0
  4  9  1  0
  8  9  1  0
  9 43  1  0
  9 44  1  0
  3 10  2  0
 10 45  1  0
 10 11  1  0
 11 46  1  0
  1 12  1  0
 11 12  2  0
 12 13  1  0
 13 14  2  0
 14 47  1  0
 14 15  1  0
 15 48  1  0
 15 16  2  0
 16 17  1  0
 17 18  1  0
 17 19  1  0
 17 20  1  0
 16 21  1  0
 21 22  1  0
 22 23  2  0
 22 24  2  0
 22 25  1  0
 25 49  1  0
 25 50  1  0
 13 26  1  0
 21 26  2  0
 26 27  1  0
 27 28  2  0
 28 29  1  0
 29 30  2  0
 27 31  1  0
 30 31  1  0
M  CHG  2   7   1  31  -1
M  END
>  <conformer_energy>  (1) 
-101.43

>  <ligand_smiles>  (1) 
NS(=O)(=O)c1c(C(F)(F)F)ccc(-c2ccc(C3CC[NH2+]CC3)cc2)c1-c1nnn[n-]1

>  <ligand_conf_name>  (1) 
MOL_0_isomer_0_conf_0

>  <ligand_molecule_name>  (1) 
MOL_0_isomer_0

$$$$
