MOL_0_isomer_0_conf_0
     RDKit          3D

 43 45  0  0  0  0  0  0  0  0999 V2000
    6.4099   -4.4443    4.0683 C   0  0  0  0  0  0  0  0  0  0  0  0
    5.3673   -4.3609    3.1433 C   0  0  0  0  0  0  0  0  0  0  0  0
    4.0401   -4.1817    3.5753 C   0  0  0  0  0  0  0  0  0  0  0  0
    2.8842   -4.0762    2.5843 C   0  0  1  0  0  0  0  0  0  0  0  0
    3.0847   -2.8782    1.7721 N   0  0  0  0  0  0  0  0  0  0  0  0
    2.0777   -2.3399    1.0013 C   0  0  0  0  0  0  0  0  0  0  0  0
    0.9792   -2.8718    0.8860 O   0  0  0  0  0  0  0  0  0  0  0  0
    2.4243   -1.0995    0.3226 C   0  0  0  0  0  0  0  0  0  0  0  0
    1.5406   -0.1018   -0.2005 C   0  0  0  0  0  0  0  0  0  0  0  0
    0.0863   -0.0332   -0.1165 C   0  0  0  0  0  0  0  0  0  0  0  0
   -0.6763    0.1773   -1.2742 C   0  0  0  0  0  0  0  0  0  0  0  0
   -2.0707    0.2441   -1.1971 C   0  0  0  0  0  0  0  0  0  0  0  0
   -2.7046    0.1084    0.0383 C   0  0  0  0  0  0  0  0  0  0  0  0
   -4.4207    0.1926    0.1292 Cl  0  0  0  0  0  0  0  0  0  0  0  0
   -1.9603   -0.0856    1.1977 C   0  0  0  0  0  0  0  0  0  0  0  0
   -0.5717   -0.1500    1.1127 C   0  0  0  0  0  0  0  0  0  0  0  0
    0.1274   -0.3043    2.2487 F   0  0  0  0  0  0  0  0  0  0  0  0
    2.2243    0.8635   -0.8399 N   0  0  0  0  0  0  0  0  0  0  0  0
    3.5085    0.5276   -0.6825 N   0  0  0  0  0  0  0  0  0  0  0  0
    3.6883   -0.6372   -0.0010 C   0  0  0  0  0  0  0  0  0  0  0  0
    2.7351   -5.3400    1.7205 C   0  0  0  0  0  0  0  0  0  0  0  0
    2.2240   -6.5182    2.5186 C   0  0  0  0  0  0  0  0  0  0  0  0
    1.8955   -6.4815    3.6972 O   0  0  0  0  0  0  0  0  0  0  0  0
    2.1385   -7.6811    1.8082 N   0  0  0  0  0  0  0  0  0  0  0  0
    3.7857   -4.0829    4.9553 C   0  0  0  0  0  0  0  0  0  0  0  0
    4.8311   -4.1669    5.8774 C   0  0  0  0  0  0  0  0  0  0  0  0
    4.4913   -4.0398    7.5601 Cl  0  0  0  0  0  0  0  0  0  0  0  0
    6.1364   -4.3468    5.4290 C   0  0  0  0  0  0  0  0  0  0  0  0
    7.1567   -4.4256    6.2960 F   0  0  0  0  0  0  0  0  0  0  0  0
    7.4350   -4.5860    3.7395 H   0  0  0  0  0  0  0  0  0  0  0  0
    5.5990   -4.4374    2.0828 H   0  0  0  0  0  0  0  0  0  0  0  0
    1.9487   -3.9146    3.1366 H   0  0  0  0  0  0  0  0  0  0  0  0
    3.9234   -2.3346    1.9147 H   0  0  0  0  0  0  0  0  0  0  0  0
   -0.1842    0.2898   -2.2382 H   0  0  0  0  0  0  0  0  0  0  0  0
   -2.6524    0.4036   -2.1013 H   0  0  0  0  0  0  0  0  0  0  0  0
   -2.4399   -0.1840    2.1657 H   0  0  0  0  0  0  0  0  0  0  0  0
    4.2145    1.1393   -1.0805 H   0  0  0  0  0  0  0  0  0  0  0  0
    4.6786   -1.0364    0.1615 H   0  0  0  0  0  0  0  0  0  0  0  0
    2.0158   -5.1741    0.9101 H   0  0  0  0  0  0  0  0  0  0  0  0
    3.6821   -5.6183    1.2434 H   0  0  0  0  0  0  0  0  0  0  0  0
    2.3587   -7.7508    0.8249 H   0  0  0  0  0  0  0  0  0  0  0  0
    1.7924   -8.5015    2.2897 H   0  0  0  0  0  0  0  0  0  0  0  0
    2.7650   -3.9552    5.3131 H   0  0  0  0  0  0  0  0  0  0  0  0
 30  1  1  0
  1  2  2  0
  2 31  1  0
  2  3  1  0
  3  4  1  0
  4 32  1  1
  4  5  1  0
  5 33  1  0
  5  6  1  0
  6  7  2  0
  6  8  1  0
  8  9  1  0
  9 10  1  0
 10 11  2  0
 11 34  1  0
 11 12  1  0
 12 35  1  0
 12 13  2  0
 13 14  1  0
 13 15  1  0
 15 36  1  0
 10 16  1  0
 15 16  2  0
 16 17  1  0
  9 18  2  0
 18 19  1  0
 19 37  1  0
  8 20  2  0
 19 20  1  0
 20 38  1  0
  4 21  1  0
 21 39  1  0
 21 40  1  0
 21 22  1  0
 22 23  2  0
 22 24  1  0
 24 41  1  0
 24 42  1  0
  3 25  2  0
 25 43  1  0
 25 26  1  0
 26 27  1  0
  1 28  1  0
 26 28  2  0
 28 29  1  0
M  END
>  <conformer_energy>  (1) 
-11.53

>  <ligand_smiles>  (1) 
NC(=O)C[C@H](NC(=O)c1c[nH]nc1-c1ccc(Cl)cc1F)c1ccc(F)c(Cl)c1

>  <ligand_conf_name>  (1) 
MOL_0_isomer_0_conf_0

>  <ligand_molecule_name>  (1) 
MOL_0_isomer_0

$$$$
