MOL_0_isomer_0_conf_0
     RDKit          3D

 17 16  0  0  0  0  0  0  0  0999 V2000
    1.6986   -0.5362    3.2459 N   0  0  0  0  0  0  0  0  0  0  0  0
    2.4356    0.2407    2.4153 C   0  0  0  0  0  0  0  0  0  0  0  0
    2.8767    1.3303    2.7651 O   0  0  0  0  0  0  0  0  0  0  0  0
    2.6732   -0.3056    1.0282 C   0  0  0  0  0  0  0  0  0  0  0  0
    1.3898   -0.2660    0.2235 C   0  0  2  0  0  0  0  0  0  0  0  0
    0.5421   -1.5656    0.3861 C   0  0  0  0  0  0  0  0  0  0  0  0
    0.4593   -2.0765    1.5251 O   0  0  0  0  0  0  0  0  0  0  0  0
    0.1021   -1.9215   -0.7558 O   0  0  0  0  0  1  0  0  0  0  0  0
    1.7160   -0.1048   -1.2590 N   0  0  0  0  0  4  0  0  0  0  0  0
    1.5031   -0.2323    4.1889 H   0  0  0  0  0  0  0  0  0  0  0  0
    1.2073   -1.3769    2.9039 H   0  0  0  0  0  0  0  0  0  0  0  0
    3.0759   -1.3219    1.1119 H   0  0  0  0  0  0  0  0  0  0  0  0
    3.4507    0.3141    0.5647 H   0  0  0  0  0  0  0  0  0  0  0  0
    0.7554    0.5916    0.4741 H   0  0  0  0  0  0  0  0  0  0  0  0
    0.9514   -0.6900   -1.6843 H   0  0  0  0  0  0  0  0  0  0  0  0
    1.6470    0.8490   -1.6117 H   0  0  0  0  0  0  0  0  0  0  0  0
    2.5764   -0.5845   -1.5318 H   0  0  0  0  0  0  0  0  0  0  0  0
 10  1  1  0
  1 11  1  0
  1  2  1  0
  2  3  2  0
  2  4  1  0
  4 12  1  0
  4 13  1  0
  4  5  1  0
  5 14  1  1
  5  6  1  0
  6  7  2  0
  6  8  1  0
  5  9  1  0
  9 15  1  0
  9 16  1  0
  9 17  1  0
M  CHG  2   8  -1   9   1
M  END
>  <conformer_energy>  (1) 
-61.52

>  <ligand_smiles>  (1) 
NC(=O)C[C@@H]([NH3+])C(=O)[O-]

>  <ligand_conf_name>  (1) 
MOL_0_isomer_0_conf_0

>  <ligand_molecule_name>  (1) 
MOL_0_isomer_0

$$$$
