1XM6 - prepared_ligand3_conf_0
     RDKit          3D

 38 39  0  0  0  0  0  0  0  0999 V2000
    3.6467    2.3961   -0.6380 C   0  0  0  0  0  0  0  0  0  0  0  0
    3.1921    3.6998   -0.3953 C   0  0  0  0  0  0  0  0  0  0  0  0
    2.2081    3.9609    0.5736 C   0  0  0  0  0  0  0  0  0  0  0  0
    1.7320    5.3845    0.8336 C   0  0  1  0  0  0  0  0  0  0  0  0
    1.0202    5.9560   -0.4030 C   0  0  0  0  0  0  0  0  0  0  0  0
    0.7816    5.4411    1.9240 O   0  0  0  0  0  0  0  0  0  0  0  0
    1.0526    6.5344    2.6922 C   0  0  0  0  0  0  0  0  0  0  0  0
    0.3461    6.9447    3.5958 O   0  0  0  0  0  0  0  0  0  0  0  0
    2.2370    7.0898    2.3079 N   0  0  0  0  0  0  0  0  0  0  0  0
    2.8676    6.2940    1.3119 C   0  0  0  0  0  0  0  0  0  0  0  0
    1.6873    2.8717    1.2858 C   0  0  0  0  0  0  0  0  0  0  0  0
    2.1246    1.5676    1.0261 C   0  0  0  0  0  0  0  0  0  0  0  0
    1.5613    0.5824    1.7998 O   0  0  0  0  0  0  0  0  0  0  0  0
    0.7695   -0.3182    1.0174 C   0  0  0  0  0  0  0  0  0  0  0  0
   -0.3184   -0.9173    1.9079 C   0  0  0  0  0  0  0  0  0  0  0  0
   -1.2893    0.1361    2.4249 C   0  0  0  0  0  0  0  0  0  0  0  0
    3.1242    1.3158    0.0760 C   0  0  0  0  0  0  0  0  0  0  0  0
    3.5261    0.0155   -0.0703 O   0  0  0  0  0  0  0  0  0  0  0  0
    4.5586   -0.2535   -1.0080 C   0  0  0  0  0  0  0  0  0  0  0  0
    4.4176    2.2622   -1.3908 H   0  0  0  0  0  0  0  0  0  0  0  0
    3.6244    4.5111   -0.9779 H   0  0  0  0  0  0  0  0  0  0  0  0
    0.6249    6.9588   -0.2052 H   0  0  0  0  0  0  0  0  0  0  0  0
    0.1596    5.3334   -0.6756 H   0  0  0  0  0  0  0  0  0  0  0  0
    1.6841    6.0193   -1.2719 H   0  0  0  0  0  0  0  0  0  0  0  0
    2.6268    7.8786    2.8061 H   0  0  0  0  0  0  0  0  0  0  0  0
    3.2919    6.9285    0.5276 H   0  0  0  0  0  0  0  0  0  0  0  0
    3.6793    5.7459    1.8045 H   0  0  0  0  0  0  0  0  0  0  0  0
    0.9245    3.0176    2.0492 H   0  0  0  0  0  0  0  0  0  0  0  0
    0.3046    0.1876    0.1602 H   0  0  0  0  0  0  0  0  0  0  0  0
    1.4053   -1.1308    0.6483 H   0  0  0  0  0  0  0  0  0  0  0  0
   -0.8729   -1.6748    1.3422 H   0  0  0  0  0  0  0  0  0  0  0  0
    0.1444   -1.4155    2.7689 H   0  0  0  0  0  0  0  0  0  0  0  0
   -2.0715   -0.3350    3.0286 H   0  0  0  0  0  0  0  0  0  0  0  0
   -1.7718    0.6640    1.5954 H   0  0  0  0  0  0  0  0  0  0  0  0
   -0.7801    0.8737    3.0535 H   0  0  0  0  0  0  0  0  0  0  0  0
    4.7573   -1.3297   -0.9871 H   0  0  0  0  0  0  0  0  0  0  0  0
    5.4851    0.2612   -0.7333 H   0  0  0  0  0  0  0  0  0  0  0  0
    4.2454    0.0070   -2.0240 H   0  0  0  0  0  0  0  0  0  0  0  0
 20  1  1  0
  1  2  2  0
  2 21  1  0
  2  3  1  0
  3  4  1  0
  4  5  1  6
  5 22  1  0
  5 23  1  0
  5 24  1  0
  4  6  1  0
  6  7  1  0
  7  8  2  0
  7  9  1  0
  9 25  1  0
  4 10  1  0
  9 10  1  0
 10 26  1  0
 10 27  1  0
  3 11  2  0
 11 28  1  0
 11 12  1  0
 12 13  1  0
 13 14  1  0
 14 29  1  0
 14 30  1  0
 14 15  1  0
 15 31  1  0
 15 32  1  0
 15 16  1  0
 16 33  1  0
 16 34  1  0
 16 35  1  0
  1 17  1  0
 12 17  2  0
 17 18  1  0
 18 19  1  0
 19 36  1  0
 19 37  1  0
 19 38  1  0
M  END
>  <conformer_energy>  (1) 
17.73

>  <ligand_smiles>  (1) 
CCCOc1cc([C@]2(C)CNC(=O)O2)ccc1OC

>  <ligand_conf_name>  (1) 
1XM6 - prepared_ligand3_conf_0

>  <ligand_molecule_name>  (1) 
1XM6 - prepared_ligand3

>  <fragInfo>  (1) 
4 5 6 7 8 9 10 22 23 24 25 26 27
1 2 3 11 12 17 20 21 28
13
14 29 30
15 16 31 32 33 34 35
18 19 36 37 38


>  <torsionInfo>  (1) 
3 4 1 0
12 13 1 2
17 18 1 5
13 14 2 3
14 15 3 4


>  <atomInfo>  (1) 
1  -0.015668 A 
2  -0.051018 A 
3  0.001004  A 
4  0.153593  C 
5  -0.018537 C 
6  -0.436441 OA
7  0.407736  C 
8  -0.224565 OA
9  -0.317078 N 
10 0.064910  C 
11 -0.008802 A 
12 0.161065  A 
13 -0.489701 OA
14 0.088137  C 
15 -0.021595 C 
16 -0.062138 C 
17 0.160255  A 
18 -0.492870 OA
19 0.077717  C 
20 0.066349  H 
21 0.062855  H 
22 0.027562  H 
23 0.027562  H 
24 0.027562  H 
25 0.166780  HD
26 0.053826  H 
27 0.053826  H 
28 0.066787  H 
29 0.070553  H 
30 0.070553  H 
31 0.029852  H 
32 0.029852  H 
33 0.023160  H 
34 0.023160  H 
35 0.023160  H 
36 0.066865  H 
37 0.066865  H 
38 0.066865  H 


$$$$
