MOL_0_isomer_0_conf_0
     RDKit          3D

 26 26  0  0  0  0  0  0  0  0999 V2000
    1.5761   -3.6266   -1.8559 O   0  0  0  0  0  0  0  0  0  0  0  0
    1.2364   -2.2820   -1.4703 C   0  0  2  0  0  0  0  0  0  0  0  0
    1.8341   -1.2815   -2.4681 C   0  0  2  0  0  0  0  0  0  0  0  0
    3.2325   -1.5997   -2.6186 O   0  0  0  0  0  0  0  0  0  0  0  0
    1.6394    0.1579   -1.9635 C   0  0  2  0  0  0  0  0  0  0  0  0
    2.3170    1.1831   -2.8661 C   0  0  0  0  0  0  0  0  0  0  0  0
    2.2121    0.2991   -0.6497 O   0  0  0  0  0  0  0  0  0  0  0  0
    1.5738   -0.5494    0.3198 C   0  0  1  0  0  0  0  0  0  0  0  0
    0.1786   -0.2491    0.4191 O   0  0  0  0  0  0  0  0  0  0  0  0
   -0.0520    0.9643    1.1218 C   0  0  0  0  0  0  0  0  0  0  0  0
    1.7840   -2.0286   -0.0619 C   0  0  1  0  0  0  0  0  0  0  0  0
    1.1775   -2.9297    0.8730 O   0  0  0  0  0  0  0  0  0  0  0  0
    2.4480   -3.5580   -2.2985 H   0  0  0  0  0  0  0  0  0  0  0  0
    0.1421   -2.2223   -1.4679 H   0  0  0  0  0  0  0  0  0  0  0  0
    1.3795   -1.4196   -3.4548 H   0  0  0  0  0  0  0  0  0  0  0  0
    3.7285   -1.0293   -1.9993 H   0  0  0  0  0  0  0  0  0  0  0  0
    0.5702    0.3987   -1.9223 H   0  0  0  0  0  0  0  0  0  0  0  0
    1.9483    1.1116   -3.8937 H   0  0  0  0  0  0  0  0  0  0  0  0
    2.1214    2.1959   -2.4969 H   0  0  0  0  0  0  0  0  0  0  0  0
    3.4054    1.0625   -2.8710 H   0  0  0  0  0  0  0  0  0  0  0  0
    2.0477   -0.3771    1.2938 H   0  0  0  0  0  0  0  0  0  0  0  0
   -1.1298    1.1463    1.1457 H   0  0  0  0  0  0  0  0  0  0  0  0
    0.4305    1.8057    0.6155 H   0  0  0  0  0  0  0  0  0  0  0  0
    0.3087    0.8860    2.1519 H   0  0  0  0  0  0  0  0  0  0  0  0
    2.8576   -2.2537   -0.0493 H   0  0  0  0  0  0  0  0  0  0  0  0
    1.0896   -3.7784    0.3949 H   0  0  0  0  0  0  0  0  0  0  0  0
 13  1  1  0
  1  2  1  0
  2 14  1  1
  2  3  1  0
  3 15  1  6
  3  4  1  0
  4 16  1  0
  3  5  1  0
  5 17  1  1
  5  6  1  0
  6 18  1  0
  6 19  1  0
  6 20  1  0
  5  7  1  0
  7  8  1  0
  8 21  1  1
  8  9  1  0
  9 10  1  0
 10 22  1  0
 10 23  1  0
 10 24  1  0
  2 11  1  0
  8 11  1  0
 11 25  1  6
 11 12  1  0
 12 26  1  0
M  END
>  <conformer_energy>  (1) 
80.27

>  <ligand_smiles>  (1) 
CO[C@@H]1O[C@@H](C)[C@@H](O)[C@@H](O)[C@@H]1O

>  <ligand_conf_name>  (1) 
MOL_0_isomer_0_conf_0

>  <ligand_molecule_name>  (1) 
MOL_0_isomer_0

$$$$
