MOL_0_isomer_0_conf_0
     RDKit          3D

 50 51  0  0  0  0  0  0  0  0999 V2000
   11.9674    3.4481    3.5326 O   0  0  0  0  0  0  0  0  0  0  0  0
   12.3795    3.8944    2.2380 C   0  0  0  0  0  0  0  0  0  0  0  0
   12.0455    2.8462    1.1652 C   0  0  1  0  0  0  0  0  0  0  0  0
   10.6174    2.7277    1.0723 O   0  0  0  0  0  0  0  0  0  0  0  0
   10.1872    1.7192    0.1698 C   0  0  1  0  0  0  0  0  0  0  0  0
    8.7496    1.7848    0.2847 N   0  0  0  0  0  0  0  0  0  0  0  0
    7.9053    0.8544   -0.2549 C   0  0  0  0  0  0  0  0  0  0  0  0
    8.3355   -0.0566   -0.9607 O   0  0  0  0  0  0  0  0  0  0  0  0
    6.4445    1.0102    0.0396 C   0  0  0  0  0  0  0  0  0  0  0  0
    5.9818    2.1435    0.7617 C   0  0  0  0  0  0  0  0  0  0  0  0
    5.6592    3.0811    1.3645 N   0  0  0  0  0  0  0  0  0  0  0  0
    5.6216    0.0511   -0.4300 C   0  0  0  0  0  0  0  0  0  0  0  0
    4.1630    0.0140   -0.2721 C   0  0  0  0  0  0  0  0  0  0  0  0
    3.5553   -0.0313    0.9806 C   0  0  0  0  0  0  0  0  0  0  0  0
    2.1571   -0.0839    1.0900 C   0  0  0  0  0  0  0  0  0  0  0  0
    1.3129   -0.1037   -0.0335 C   0  0  0  0  0  0  0  0  0  0  0  0
   -0.0713   -0.1546    0.0828 N   0  0  0  0  0  0  0  0  0  0  0  0
   -0.7189   -0.1292    1.3883 C   0  0  0  0  0  0  0  0  0  0  0  0
   -0.9274   -0.1834   -1.0962 C   0  0  0  0  0  0  0  0  0  0  0  0
    1.9574   -0.0737   -1.2819 C   0  0  0  0  0  0  0  0  0  0  0  0
    3.3541   -0.0197   -1.4056 C   0  0  0  0  0  0  0  0  0  0  0  0
   10.7018    1.9885   -1.2675 C   0  0  2  0  0  0  0  0  0  0  0  0
   10.4777    0.9085   -2.1883 O   0  0  0  0  0  0  0  0  0  0  0  0
   12.2160    2.2125   -1.2396 C   0  0  1  0  0  0  0  0  0  0  0  0
   12.6790    2.6442   -2.5303 O   0  0  0  0  0  0  0  0  0  0  0  0
   12.6211    3.2498   -0.1949 C   0  0  2  0  0  0  0  0  0  0  0  0
   14.0475    3.3257   -0.1469 O   0  0  0  0  0  0  0  0  0  0  0  0
   12.4892    2.6572    3.7487 H   0  0  0  0  0  0  0  0  0  0  0  0
   11.8478    4.8307    2.0399 H   0  0  0  0  0  0  0  0  0  0  0  0
   13.4525    4.1037    2.2846 H   0  0  0  0  0  0  0  0  0  0  0  0
   12.4538    1.8809    1.4932 H   0  0  0  0  0  0  0  0  0  0  0  0
   10.5048    0.7294    0.5207 H   0  0  0  0  0  0  0  0  0  0  0  0
    8.4254    2.5295    0.8898 H   0  0  0  0  0  0  0  0  0  0  0  0
    6.0212   -0.7840   -1.0051 H   0  0  0  0  0  0  0  0  0  0  0  0
    4.1472   -0.0322    1.8928 H   0  0  0  0  0  0  0  0  0  0  0  0
    1.7449   -0.1122    2.0946 H   0  0  0  0  0  0  0  0  0  0  0  0
   -1.8109   -0.1560    1.3049 H   0  0  0  0  0  0  0  0  0  0  0  0
   -0.4652    0.7874    1.9321 H   0  0  0  0  0  0  0  0  0  0  0  0
   -0.4266   -0.9998    1.9857 H   0  0  0  0  0  0  0  0  0  0  0  0
   -1.9883   -0.2488   -0.8311 H   0  0  0  0  0  0  0  0  0  0  0  0
   -0.7054   -1.0569   -1.7192 H   0  0  0  0  0  0  0  0  0  0  0  0
   -0.8028    0.7286   -1.6902 H   0  0  0  0  0  0  0  0  0  0  0  0
    1.3831   -0.0899   -2.2036 H   0  0  0  0  0  0  0  0  0  0  0  0
    3.7908    0.0006   -2.4015 H   0  0  0  0  0  0  0  0  0  0  0  0
   10.2082    2.8730   -1.6886 H   0  0  0  0  0  0  0  0  0  0  0  0
    9.6468    0.4531   -1.9265 H   0  0  0  0  0  0  0  0  0  0  0  0
   12.7359    1.2649   -1.0470 H   0  0  0  0  0  0  0  0  0  0  0  0
   12.2539    2.0312   -3.1660 H   0  0  0  0  0  0  0  0  0  0  0  0
   12.2493    4.2374   -0.4955 H   0  0  0  0  0  0  0  0  0  0  0  0
   14.3303    3.4040   -1.0820 H   0  0  0  0  0  0  0  0  0  0  0  0
 28  1  1  0
  1  2  1  0
  2 29  1  0
  2 30  1  0
  2  3  1  0
  3 31  1  1
  3  4  1  0
  4  5  1  0
  5 32  1  1
  5  6  1  0
  6 33  1  0
  6  7  1  0
  7  8  2  0
  7  9  1  0
  9 10  1  0
 10 11  3  0
  9 12  2  0
 12 34  1  0
 12 13  1  0
 13 14  2  0
 14 35  1  0
 14 15  1  0
 15 36  1  0
 15 16  2  0
 16 17  1  0
 17 18  1  0
 18 37  1  0
 18 38  1  0
 18 39  1  0
 17 19  1  0
 19 40  1  0
 19 41  1  0
 19 42  1  0
 16 20  1  0
 20 43  1  0
 13 21  1  0
 20 21  2  0
 21 44  1  0
  5 22  1  0
 22 45  1  6
 22 23  1  0
 23 46  1  0
 22 24  1  0
 24 47  1  1
 24 25  1  0
 25 48  1  0
  3 26  1  0
 24 26  1  0
 26 49  1  6
 26 27  1  0
 27 50  1  0
M  END
>  <conformer_energy>  (1) 
71.09

>  <ligand_smiles>  (1) 
CN(C)c1ccc(/C=C(\C#N)C(=O)N[C@@H]2O[C@H](CO)[C@@H](O)[C@H](O)[C@H]2O)cc1

>  <ligand_conf_name>  (1) 
MOL_0_isomer_0_conf_0

>  <ligand_molecule_name>  (1) 
MOL_0_isomer_0

$$$$
