MOL_0_isomer_0_conf_0
     RDKit          3D

 30 30  0  0  0  0  0  0  0  0999 V2000
   -2.4673   -3.0406   -1.1331 O   0  0  0  0  0  0  0  0  0  0  0  0
   -2.1367   -1.7762   -0.5452 C   0  0  0  0  0  0  0  0  0  0  0  0
   -0.6232   -1.5469   -0.6633 C   0  0  1  0  0  0  0  0  0  0  0  0
   -0.2952   -1.7337   -2.0506 O   0  0  0  0  0  0  0  0  0  0  0  0
   -0.2134   -0.1584   -0.1245 C   0  0  1  0  0  0  0  0  0  0  0  0
   -0.7641    0.0634    1.1823 O   0  0  0  0  0  0  0  0  0  0  0  0
    1.3161    0.0783   -0.1274 C   0  0  2  0  0  0  0  0  0  0  0  0
    1.8012   -0.0683   -1.4675 O   0  0  0  0  0  0  0  0  0  0  0  0
    3.1838   -0.0457   -1.6116 C   0  0  0  0  0  0  0  0  0  0  0  0
    3.7356    0.1300   -3.0777 C   0  0  0  0  0  0  0  0  0  0  0  0
    2.8557    0.0715   -3.9834 O   0  0  0  0  0  0  0  0  0  0  0  0
    4.9879    0.2855   -3.1697 O   0  0  0  0  0  1  0  0  0  0  0  0
    4.0327   -0.1768   -0.5757 C   0  0  0  0  0  0  0  0  0  0  0  0
    3.5615   -0.4298    0.8104 C   0  0  2  0  0  0  0  0  0  0  0  0
    4.3226   -1.4788    1.4181 O   0  0  0  0  0  0  0  0  0  0  0  0
    2.0841   -0.8533    0.8193 C   0  0  1  0  0  0  0  0  0  0  0  0
    1.5627   -0.8201    2.1582 O   0  0  0  0  0  0  0  0  0  0  0  0
   -1.9169   -3.0676   -1.9450 H   0  0  0  0  0  0  0  0  0  0  0  0
   -2.6939   -1.0103   -1.0947 H   0  0  0  0  0  0  0  0  0  0  0  0
   -2.4722   -1.7850    0.4954 H   0  0  0  0  0  0  0  0  0  0  0  0
   -0.1214   -2.3459   -0.1077 H   0  0  0  0  0  0  0  0  0  0  0  0
    0.5456   -1.2608   -2.2478 H   0  0  0  0  0  0  0  0  0  0  0  0
   -0.6586    0.5928   -0.7897 H   0  0  0  0  0  0  0  0  0  0  0  0
   -0.1130   -0.2890    1.8294 H   0  0  0  0  0  0  0  0  0  0  0  0
    1.4716    1.1182    0.1961 H   0  0  0  0  0  0  0  0  0  0  0  0
    5.1038   -0.1051   -0.7530 H   0  0  0  0  0  0  0  0  0  0  0  0
    3.7113    0.4626    1.4281 H   0  0  0  0  0  0  0  0  0  0  0  0
    4.6785   -2.0202    0.6890 H   0  0  0  0  0  0  0  0  0  0  0  0
    2.0114   -1.8946    0.4808 H   0  0  0  0  0  0  0  0  0  0  0  0
    2.2569   -1.2500    2.7001 H   0  0  0  0  0  0  0  0  0  0  0  0
 18  1  1  0
  1  2  1  0
  2 19  1  0
  2 20  1  0
  2  3  1  0
  3 21  1  1
  3  4  1  0
  4 22  1  0
  3  5  1  0
  5 23  1  6
  5  6  1  0
  6 24  1  0
  5  7  1  0
  7 25  1  1
  7  8  1  0
  8  9  1  0
  9 10  1  0
 10 11  2  0
 10 12  1  0
  9 13  2  0
 13 26  1  0
 13 14  1  0
 14 27  1  1
 14 15  1  0
 15 28  1  0
  7 16  1  0
 14 16  1  0
 16 29  1  6
 16 17  1  0
 17 30  1  0
M  CHG  1  12  -1
M  END
>  <conformer_energy>  (1) 
116.15

>  <ligand_smiles>  (1) 
O=C([O-])C1=C[C@H](O)[C@@H](O)[C@H]([C@H](O)[C@H](O)CO)O1

>  <ligand_conf_name>  (1) 
MOL_0_isomer_0_conf_0

>  <ligand_molecule_name>  (1) 
MOL_0_isomer_0

$$$$
