MOL_0_isomer_0_conf_0
     RDKit          3D

 44 46  0  0  0  0  0  0  0  0999 V2000
    1.1660   -0.8275   -2.3234 O   0  0  0  0  0  0  0  0  0  0  0  0
    1.7257   -0.0409   -1.2523 C   0  0  1  0  0  0  0  0  0  0  0  0
    2.5454    1.0391   -1.9269 C   0  0  1  0  0  0  0  0  0  0  0  0
    3.2656    0.5041   -3.0452 O   0  0  0  0  0  0  0  0  0  0  0  0
    1.4387    2.0154   -2.3175 C   0  0  2  0  0  0  0  0  0  0  0  0
    1.9217    3.3753   -2.5262 N   0  0  0  0  0  0  0  0  0  0  0  0
    2.0136    4.3787   -1.5857 C   0  0  0  0  0  0  0  0  0  0  0  0
    2.5859    5.4743   -2.0632 N   0  0  0  0  0  0  0  0  0  0  0  0
    2.8614    5.1577   -3.3662 C   0  0  0  0  0  0  0  0  0  0  0  0
    3.5321    5.9205   -4.3912 C   0  0  0  0  0  0  0  0  0  0  0  0
    3.9642    7.0708   -4.2840 O   0  0  0  0  0  0  0  0  0  0  0  0
    3.6671    5.2069   -5.5745 N   0  0  0  0  0  0  0  0  0  0  0  0
    3.1830    3.9276   -5.7767 C   0  0  0  0  0  0  0  0  0  0  0  0
    3.3988    3.3830   -6.9946 N   0  0  0  0  0  0  0  0  0  0  0  0
    2.5453    3.2432   -4.8748 N   0  0  0  0  0  0  0  0  0  0  0  0
    2.4336    3.8849   -3.6880 C   0  0  0  0  0  0  0  0  0  0  0  0
    0.4894    2.0196   -1.2437 O   0  0  0  0  0  0  0  0  0  0  0  0
    0.6539    0.7518   -0.5056 C   0  0  2  0  0  0  0  0  0  0  0  0
    1.0785    1.0927    0.9238 C   0  0  0  0  0  0  0  0  0  0  0  0
   -0.0500    1.5922    1.6341 O   0  0  0  0  0  0  0  0  0  0  0  0
   -0.5945    0.6677    2.8776 P   0  0  2  0  0  5  0  0  0  0  0  0
   -1.9903    1.1931    3.1634 O   0  0  0  0  0  0  0  0  0  0  0  0
    0.4806    0.8216    3.9388 O   0  0  0  0  0  1  0  0  0  0  0  0
   -0.5602   -0.7543    2.1544 O   0  0  0  0  0  0  0  0  0  0  0  0
   -1.1515   -2.2030    2.4586 P   0  0  2  0  0  5  0  0  0  0  0  0
   -2.5707   -2.3336    1.9120 O   0  0  0  0  0  0  0  0  0  0  0  0
   -0.9976   -2.5415    3.9402 O   0  0  0  0  0  1  0  0  0  0  0  0
   -0.1818   -3.2016    1.6368 O   0  0  0  0  0  0  0  0  0  0  0  0
    0.6936   -3.2368    0.2810 P   0  0  0  0  0  5  0  0  0  0  0  0
    2.0882   -2.6963    0.6316 O   0  0  0  0  0  0  0  0  0  0  0  0
    0.7608   -4.7209   -0.1239 O   0  0  0  0  0  1  0  0  0  0  0  0
    0.0015   -2.3953   -0.7937 O   0  0  0  0  0  1  0  0  0  0  0  0
    0.6515   -1.5408   -1.8033 H   0  0  0  0  0  0  0  0  0  0  0  0
    2.3453   -0.6953   -0.6394 H   0  0  0  0  0  0  0  0  0  0  0  0
    3.2580    1.4929   -1.2266 H   0  0  0  0  0  0  0  0  0  0  0  0
    2.7796   -0.3394   -3.2109 H   0  0  0  0  0  0  0  0  0  0  0  0
    0.9105    1.7143   -3.2313 H   0  0  0  0  0  0  0  0  0  0  0  0
    1.6530    4.2389   -0.5731 H   0  0  0  0  0  0  0  0  0  0  0  0
    4.1525    5.6884   -6.3050 H   0  0  0  0  0  0  0  0  0  0  0  0
    3.1030    2.4132   -7.1014 H   0  0  0  0  0  0  0  0  0  0  0  0
    3.9360    3.8179   -7.7193 H   0  0  0  0  0  0  0  0  0  0  0  0
   -0.3226    0.2565   -0.5218 H   0  0  0  0  0  0  0  0  0  0  0  0
    1.8247    1.8941    0.9276 H   0  0  0  0  0  0  0  0  0  0  0  0
    1.5146    0.2256    1.4348 H   0  0  0  0  0  0  0  0  0  0  0  0
 33  1  1  0
  1  2  1  0
  2 34  1  1
  2  3  1  0
  3 35  1  1
  3  4  1  0
  4 36  1  0
  3  5  1  0
  5 37  1  6
  5  6  1  0
  6  7  1  0
  7 38  1  0
  7  8  2  0
  8  9  1  0
  9 10  1  0
 10 11  2  0
 10 12  1  0
 12 39  1  0
 12 13  1  0
 13 14  1  0
 14 40  1  0
 14 41  1  0
 13 15  2  0
  9 16  2  0
  6 16  1  0
 15 16  1  0
  5 17  1  0
  2 18  1  0
 17 18  1  0
 18 42  1  1
 18 19  1  0
 19 43  1  0
 19 44  1  0
 19 20  1  0
 20 21  1  0
 21 22  2  0
 21 23  1  1
 21 24  1  0
 24 25  1  0
 25 26  2  0
 25 27  1  1
 25 28  1  0
 28 29  1  0
 29 30  2  0
 29 31  1  0
 29 32  1  0
M  CHG  4  23  -1  27  -1  31  -1  32  -1
M  END
>  <conformer_energy>  (1) 
1.41

>  <ligand_smiles>  (1) 
Nc1nc2c(ncn2[C@@H]2O[C@H](CO[P@](=O)([O-])O[P@](=O)([O-])OP(=O)([O-])[O-])[C@@H](O)[C@H]2O)c(=O)[nH]1

>  <ligand_conf_name>  (1) 
MOL_0_isomer_0_conf_0

>  <ligand_molecule_name>  (1) 
MOL_0_isomer_0

$$$$
