1OYT - prepared_ligand2_conf_0
     RDKit          3D

 55 59  0  0  0  0  0  0  0  0999 V2000
    7.0628   -1.2759    6.4176 C   0  0  0  0  0  0  0  0  0  0  0  0
    7.4142   -0.1305    5.7020 C   0  0  0  0  0  0  0  0  0  0  0  0
    6.4202    0.7352    5.2156 C   0  0  0  0  0  0  0  0  0  0  0  0
    6.7975    1.9444    4.3858 C   0  0  0  0  0  0  0  0  0  0  0  0
    6.9242    1.5608    2.9896 N   0  0  0  0  0  0  0  0  0  0  0  0
    5.8707    1.4853    2.1252 C   0  0  0  0  0  0  0  0  0  0  0  0
    4.6977    1.7029    2.3763 O   0  0  0  0  0  0  0  0  0  0  0  0
    6.3949    1.0735    0.7759 C   0  0  1  0  0  0  0  0  0  0  0  0
    7.7932    0.5517    1.0867 C   0  0  1  0  0  0  0  0  0  0  0  0
    8.0892    1.1064    2.4454 C   0  0  0  0  0  0  0  0  0  0  0  0
    9.1794    1.0191    2.9814 O   0  0  0  0  0  0  0  0  0  0  0  0
    7.6787   -0.9635    1.2205 C   0  0  2  0  0  0  0  0  0  0  0  0
    8.5533   -1.7683    0.2710 C   0  0  0  0  0  0  0  0  0  0  0  0
    7.7655   -3.0541    0.0998 C   0  0  0  0  0  0  0  0  0  0  0  0
    6.3360   -2.5750   -0.0767 C   0  0  0  0  0  0  0  0  0  0  0  0
    6.2546   -1.3214    0.7771 N   0  0  2  0  0  0  0  0  0  0  0  0
    5.6861   -0.0922    0.0971 C   0  0  1  0  0  0  0  0  0  0  0  0
    4.1786   -0.0203   -0.0291 C   0  0  0  0  0  0  0  0  0  0  0  0
    3.2938   -0.5818    0.9042 C   0  0  0  0  0  0  0  0  0  0  0  0
    1.9056   -0.4235    0.7696 C   0  0  0  0  0  0  0  0  0  0  0  0
    1.3589    0.2971   -0.3012 C   0  0  0  0  0  0  0  0  0  0  0  0
   -0.0969    0.4977   -0.4152 C   0  0  0  0  0  0  0  0  0  0  0  0
   -0.7093    0.1858   -1.5366 N   0  0  0  0  0  0  0  0  0  0  0  0
   -0.7606    0.9935    0.6065 N   0  0  0  0  0  0  0  0  0  0  0  0
    2.2366    0.8440   -1.2450 C   0  0  0  0  0  0  0  0  0  0  0  0
    3.6233    0.6915   -1.1081 C   0  0  0  0  0  0  0  0  0  0  0  0
    5.0702    0.4333    5.4600 C   0  0  0  0  0  0  0  0  0  0  0  0
    4.7231   -0.7118    6.1776 C   0  0  0  0  0  0  0  0  0  0  0  0
    5.7217   -1.5570    6.6462 C   0  0  0  0  0  0  0  0  0  0  0  0
    5.3836   -2.6648    7.3165 F   0  0  0  0  0  0  0  0  0  0  0  0
    7.8254   -1.9434    6.8096 H   0  0  0  0  0  0  0  0  0  0  0  0
    8.4698    0.0872    5.5383 H   0  0  0  0  0  0  0  0  0  0  0  0
    6.0285    2.7198    4.4795 H   0  0  0  0  0  0  0  0  0  0  0  0
    7.7459    2.3621    4.7426 H   0  0  0  0  0  0  0  0  0  0  0  0
    6.4208    1.9670    0.1413 H   0  0  0  0  0  0  0  0  0  0  0  0
    8.5423    0.8819    0.3615 H   0  0  0  0  0  0  0  0  0  0  0  0
    7.7750   -1.3381    2.2475 H   0  0  0  0  0  0  0  0  0  0  0  0
    9.5513   -1.9444    0.6829 H   0  0  0  0  0  0  0  0  0  0  0  0
    8.6680   -1.2643   -0.6963 H   0  0  0  0  0  0  0  0  0  0  0  0
    8.1099   -3.6464   -0.7527 H   0  0  0  0  0  0  0  0  0  0  0  0
    7.8490   -3.6750    0.9998 H   0  0  0  0  0  0  0  0  0  0  0  0
    6.1250   -2.3074   -1.1165 H   0  0  0  0  0  0  0  0  0  0  0  0
    5.5915   -3.2866    0.2903 H   0  0  0  0  0  0  0  0  0  0  0  0
    5.7169   -1.5465    1.6247 H   0  0  0  0  0  0  0  0  0  0  0  0
    6.0882   -0.1435   -0.9257 H   0  0  0  0  0  0  0  0  0  0  0  0
    3.6489   -1.1167    1.7823 H   0  0  0  0  0  0  0  0  0  0  0  0
    1.2558   -0.8681    1.5240 H   0  0  0  0  0  0  0  0  0  0  0  0
   -0.1948   -0.2179   -2.3125 H   0  0  0  0  0  0  0  0  0  0  0  0
   -1.7058    0.3113   -1.6650 H   0  0  0  0  0  0  0  0  0  0  0  0
   -0.2734    1.2615    1.4562 H   0  0  0  0  0  0  0  0  0  0  0  0
   -1.7594    1.1571    0.5816 H   0  0  0  0  0  0  0  0  0  0  0  0
    1.8562    1.4290   -2.0827 H   0  0  0  0  0  0  0  0  0  0  0  0
    4.2658    1.1607   -1.8553 H   0  0  0  0  0  0  0  0  0  0  0  0
    4.2822    1.0950    5.1035 H   0  0  0  0  0  0  0  0  0  0  0  0
    3.6840   -0.9461    6.3886 H   0  0  0  0  0  0  0  0  0  0  0  0
 31  1  1  0
  1  2  2  0
  2 32  1  0
  2  3  1  0
  3  4  1  0
  4 33  1  0
  4 34  1  0
  4  5  1  0
  5  6  1  0
  6  7  2  0
  6  8  1  0
  8 35  1  6
  8  9  1  0
  9 36  1  6
  5 10  1  0
  9 10  1  0
 10 11  2  0
  9 12  1  0
 12 37  1  1
 12 13  1  0
 13 38  1  0
 13 39  1  0
 13 14  1  0
 14 40  1  0
 14 41  1  0
 14 15  1  0
 15 42  1  0
 15 43  1  0
 12 16  1  0
 15 16  1  0
 16 44  1  1
  8 17  1  0
 16 17  1  0
 17 45  1  6
 17 18  1  0
 18 19  2  0
 19 46  1  0
 19 20  1  0
 20 47  1  0
 20 21  2  0
 21 22  1  0
 22 23  1  0
 23 48  1  0
 23 49  1  0
 22 24  2  0
 24 50  1  0
 24 51  1  0
 21 25  1  0
 25 52  1  0
 18 26  1  0
 25 26  2  0
 26 53  1  0
  3 27  2  0
 27 54  1  0
 27 28  1  0
 28 55  1  0
  1 29  1  0
 28 29  2  0
 29 30  1  0
M  CHG  2  16   1  24   1
M  END
>  <conformer_energy>  (1) 
-3.93

>  <ligand_smiles>  (1) 
NC(=[NH2+])c1ccc([C@H]2[C@H]3C(=O)N(Cc4ccc(F)cc4)C(=O)[C@H]3[C@@H]3CCC[N@@H+]32)cc1

>  <ligand_conf_name>  (1) 
1OYT - prepared_ligand2_conf_0

>  <ligand_molecule_name>  (1) 
1OYT - prepared_ligand2

$$$$
