MOL_0_isomer_0_conf_0
     RDKit          3D

 44 47  0  0  0  0  0  0  0  0999 V2000
   10.5777   -0.8478    2.3135 C   0  0  0  0  0  0  0  0  0  0  0  0
   10.6312   -1.6197    3.4041 N   0  0  0  0  0  0  0  0  0  0  0  0
    9.3493   -1.6844    3.8034 N   0  0  0  0  0  0  0  0  0  0  0  0
    8.4952   -0.9596    3.0209 C   0  0  0  0  0  0  0  0  0  0  0  0
    9.2716   -0.3968    2.0383 C   0  0  0  0  0  0  0  0  0  0  0  0
    8.8422    0.5058    0.8537 C   0  0  0  0  0  0  0  0  0  0  0  0
    9.7268    0.8992   -0.1074 O   0  0  0  0  0  0  0  0  0  0  0  0
    9.0839    1.6267   -1.0810 N   0  0  0  0  0  0  0  0  0  0  0  0
    7.8004    1.6881   -0.7074 C   0  0  0  0  0  0  0  0  0  0  0  0
    6.8098    2.3199   -1.5760 C   0  0  0  0  0  0  0  0  0  0  0  0
    6.2138    3.5461   -1.2225 C   0  0  0  0  0  0  0  0  0  0  0  0
    6.7032    4.4489    0.1752 Cl  0  0  0  0  0  0  0  0  0  0  0  0
    5.1991    4.0986   -2.0090 C   0  0  0  0  0  0  0  0  0  0  0  0
    4.7771    3.4466   -3.1628 C   0  0  0  0  0  0  0  0  0  0  0  0
    5.3911    2.2584   -3.5521 C   0  0  0  0  0  0  0  0  0  0  0  0
    6.4142    1.6804   -2.7752 C   0  0  0  0  0  0  0  0  0  0  0  0
    7.0680    0.4079   -3.2655 C   0  0  0  0  0  0  0  0  0  0  0  0
    7.2567   -0.5379   -2.3029 F   0  0  0  0  0  0  0  0  0  0  0  0
    8.2968    0.6375   -3.8128 F   0  0  0  0  0  0  0  0  0  0  0  0
    6.3627   -0.2239   -4.2486 F   0  0  0  0  0  0  0  0  0  0  0  0
    7.6007    1.0386    0.5560 C   0  0  0  0  0  0  0  0  0  0  0  0
    6.3386    0.9808    1.3455 C   0  0  0  0  0  0  0  0  0  0  0  0
    5.5530   -0.1879    1.0677 O   0  0  0  0  0  0  0  0  0  0  0  0
    4.5523    0.0464    0.1612 C   0  0  0  0  0  0  0  0  0  0  0  0
    4.5035   -0.7798   -0.9579 C   0  0  0  0  0  0  0  0  0  0  0  0
    3.5732   -0.5258   -1.9692 C   0  0  0  0  0  0  0  0  0  0  0  0
    2.6660    0.5416   -1.8619 C   0  0  0  0  0  0  0  0  0  0  0  0
    1.7312    0.8923   -3.0029 C   0  0  0  0  0  0  0  0  0  0  0  0
    0.9421    1.8729   -2.8224 O   0  0  0  0  0  0  0  0  0  0  0  0
    1.8283    0.2002   -4.0642 O   0  0  0  0  0  1  0  0  0  0  0  0
    2.6708    1.3020   -0.6817 C   0  0  0  0  0  0  0  0  0  0  0  0
    3.5979    1.0490    0.3306 C   0  0  0  0  0  0  0  0  0  0  0  0
   11.4896   -0.6414    1.7677 H   0  0  0  0  0  0  0  0  0  0  0  0
    9.1262   -2.2485    4.6169 H   0  0  0  0  0  0  0  0  0  0  0  0
    7.4358   -0.9500    3.2274 H   0  0  0  0  0  0  0  0  0  0  0  0
    4.7156    5.0285   -1.7211 H   0  0  0  0  0  0  0  0  0  0  0  0
    3.9540    3.8469   -3.7530 H   0  0  0  0  0  0  0  0  0  0  0  0
    5.0318    1.7583   -4.4538 H   0  0  0  0  0  0  0  0  0  0  0  0
    5.7755    1.9108    1.2275 H   0  0  0  0  0  0  0  0  0  0  0  0
    6.5723    0.9578    2.4149 H   0  0  0  0  0  0  0  0  0  0  0  0
    5.2164   -1.5908   -1.0741 H   0  0  0  0  0  0  0  0  0  0  0  0
    3.5662   -1.1389   -2.8696 H   0  0  0  0  0  0  0  0  0  0  0  0
    1.9523    2.1132   -0.5730 H   0  0  0  0  0  0  0  0  0  0  0  0
    3.5666    1.6557    1.2289 H   0  0  0  0  0  0  0  0  0  0  0  0
 33  1  1  0
  1  2  2  0
  2  3  1  0
  3 34  1  0
  3  4  1  0
  4 35  1  0
  1  5  1  0
  4  5  2  0
  5  6  1  0
  6  7  1  0
  7  8  1  0
  8  9  2  0
  9 10  1  0
 10 11  2  0
 11 12  1  0
 11 13  1  0
 13 36  1  0
 13 14  2  0
 14 37  1  0
 14 15  1  0
 15 38  1  0
 10 16  1  0
 15 16  2  0
 16 17  1  0
 17 18  1  0
 17 19  1  0
 17 20  1  0
  6 21  2  0
  9 21  1  0
 21 22  1  0
 22 39  1  0
 22 40  1  0
 22 23  1  0
 23 24  1  0
 24 25  2  0
 25 41  1  0
 25 26  1  0
 26 42  1  0
 26 27  2  0
 27 28  1  0
 28 29  2  0
 28 30  1  0
 27 31  1  0
 31 43  1  0
 24 32  1  0
 31 32  2  0
 32 44  1  0
M  CHG  1  30  -1
M  END
>  <conformer_energy>  (1) 
70.09

>  <ligand_smiles>  (1) 
O=C([O-])c1ccc(OCc2c(-c3c(Cl)cccc3C(F)(F)F)noc2-c2cn[nH]c2)cc1

>  <ligand_conf_name>  (1) 
MOL_0_isomer_0_conf_0

>  <ligand_molecule_name>  (1) 
MOL_0_isomer_0

$$$$
