MOL_0_isomer_0_conf_0
     RDKit          3D

 20 20  0  0  0  0  0  0  0  0999 V2000
    2.1721   -0.4988    1.1000 C   0  0  0  0  0  0  0  0  0  0  0  0
    3.5688   -0.4235    1.0951 C   0  0  0  0  0  0  0  0  0  0  0  0
    4.2532    0.1108    0.0033 C   0  0  0  0  0  0  0  0  0  0  0  0
    5.6295    0.1837    0.0035 N   0  0  0  0  0  0  0  0  0  0  0  0
    3.5166    0.5694   -1.0890 C   0  0  0  0  0  0  0  0  0  0  0  0
    2.1198    0.4963   -1.0946 C   0  0  0  0  0  0  0  0  0  0  0  0
    1.4319   -0.0392    0.0025 C   0  0  0  0  0  0  0  0  0  0  0  0
   -0.0337   -0.1172    0.0021 C   0  0  0  0  0  0  0  0  0  0  0  0
   -0.6453   -0.7124   -0.9985 N   0  0  0  0  0  0  0  0  0  0  0  0
   -0.7057    0.4125    1.0009 N   0  0  0  0  0  4  0  0  0  0  0  0
    1.6802   -0.9374    1.9661 H   0  0  0  0  0  0  0  0  0  0  0  0
    4.1253   -0.7917    1.9551 H   0  0  0  0  0  0  0  0  0  0  0  0
    6.1358    0.5719   -0.7819 H   0  0  0  0  0  0  0  0  0  0  0  0
    6.1736   -0.1477    0.7897 H   0  0  0  0  0  0  0  0  0  0  0  0
    4.0314    0.9943   -1.9488 H   0  0  0  0  0  0  0  0  0  0  0  0
    1.5846    0.8802   -1.9610 H   0  0  0  0  0  0  0  0  0  0  0  0
   -0.0977   -1.1375   -1.7408 H   0  0  0  0  0  0  0  0  0  0  0  0
   -1.6508   -0.7954   -1.0532 H   0  0  0  0  0  0  0  0  0  0  0  0
   -0.2062    0.8872    1.7471 H   0  0  0  0  0  0  0  0  0  0  0  0
   -1.7145    0.3915    1.0533 H   0  0  0  0  0  0  0  0  0  0  0  0
 11  1  1  0
  1  2  2  0
  2 12  1  0
  2  3  1  0
  3  4  1  0
  4 13  1  0
  4 14  1  0
  3  5  2  0
  5 15  1  0
  5  6  1  0
  6 16  1  0
  1  7  1  0
  6  7  2  0
  7  8  1  0
  8  9  1  0
  9 17  1  0
  9 18  1  0
  8 10  2  0
 10 19  1  0
 10 20  1  0
M  CHG  1  10   1
M  END
>  <conformer_energy>  (1) 
-14.01

>  <ligand_smiles>  (1) 
NC(=[NH2+])c1ccc(N)cc1

>  <ligand_conf_name>  (1) 
MOL_0_isomer_0_conf_0

>  <ligand_molecule_name>  (1) 
MOL_0_isomer_0

$$$$
