MOL_0_isomer_0_conf_0
     RDKit          3D

 23 22  0  0  0  0  0  0  0  0999 V2000
    6.2510    0.5898    0.8026 O   0  0  0  0  0  0  0  0  0  0  0  0
    4.9746    0.7320    1.8100 P   0  0  1  0  0  5  0  0  0  0  0  0
    5.3129   -0.2877    2.8692 O   0  0  0  0  0  0  0  0  0  0  0  0
    4.9950    2.2101    2.1112 O   0  0  0  0  0  1  0  0  0  0  0  0
    3.6840    0.2230    0.6765 C   0  0  0  0  0  0  0  0  0  0  0  0
    2.2541    0.1620    1.1439 C   0  0  0  0  0  0  0  0  0  0  0  0
    1.8640    0.4897    2.2572 O   0  0  0  0  0  0  0  0  0  0  0  0
    1.4261   -0.3108    0.1418 N   0  0  0  0  0  0  0  0  0  0  0  0
   -0.0559   -0.5369    0.1852 C   0  0  2  0  0  0  0  0  0  0  0  0
   -0.4144   -1.7002   -0.8252 C   0  0  0  0  0  0  0  0  0  0  0  0
   -1.2411   -2.5795   -0.4484 O   0  0  0  0  0  0  0  0  0  0  0  0
    0.2908   -1.6961   -1.8936 O   0  0  0  0  0  1  0  0  0  0  0  0
   -0.7627    0.7437   -0.2633 C   0  0  0  0  0  0  0  0  0  0  0  0
   -2.2826    0.8067   -0.0951 C   0  0  0  0  0  0  0  0  0  0  0  0
   -2.7528    0.4774    1.0313 O   0  0  0  0  0  0  0  0  0  0  0  0
   -2.9118    1.3083   -1.0804 O   0  0  0  0  0  1  0  0  0  0  0  0
    6.9877    0.8582    1.3763 H   0  0  0  0  0  0  0  0  0  0  0  0
    3.7158    0.9004   -0.1860 H   0  0  0  0  0  0  0  0  0  0  0  0
    3.9512   -0.7751    0.3070 H   0  0  0  0  0  0  0  0  0  0  0  0
    1.8084   -0.6108   -0.7502 H   0  0  0  0  0  0  0  0  0  0  0  0
   -0.3281   -0.8147    1.2085 H   0  0  0  0  0  0  0  0  0  0  0  0
   -0.5182    0.9502   -1.3144 H   0  0  0  0  0  0  0  0  0  0  0  0
   -0.3634    1.5941    0.3063 H   0  0  0  0  0  0  0  0  0  0  0  0
 17  1  1  0
  1  2  1  0
  2  3  2  0
  2  4  1  1
  2  5  1  0
  5 18  1  0
  5 19  1  0
  5  6  1  0
  6  7  2  0
  6  8  1  0
  8 20  1  0
  8  9  1  0
  9 21  1  1
  9 10  1  0
 10 11  2  0
 10 12  1  0
  9 13  1  0
 13 22  1  0
 13 23  1  0
 13 14  1  0
 14 15  2  0
 14 16  1  0
M  CHG  3   4  -1  12  -1  16  -1
M  END
>  <conformer_energy>  (1) 
75.57

>  <ligand_smiles>  (1) 
O=C([O-])C[C@H](NC(=O)C[P@](=O)([O-])O)C(=O)[O-]

>  <ligand_conf_name>  (1) 
MOL_0_isomer_0_conf_0

>  <ligand_molecule_name>  (1) 
MOL_0_isomer_0

$$$$
