MOL_0_isomer_0_conf_0
     RDKit          3D

 31 34  0  0  0  0  0  0  0  0999 V2000
    4.9022    4.2653   -2.1114 C   0  0  0  0  0  0  0  0  0  0  0  0
    3.6221    4.7901   -2.3023 C   0  0  0  0  0  0  0  0  0  0  0  0
    3.4770    6.1839   -2.8441 C   0  0  0  0  0  0  0  0  0  0  0  0
    2.4741    4.1244   -2.0305 N   0  0  0  0  0  0  0  0  0  0  0  0
    2.6735    2.8844   -1.5491 C   0  0  0  0  0  0  0  0  0  0  0  0
    3.8839    2.2495   -1.3139 C   0  0  0  0  0  0  0  0  0  0  0  0
    5.0516    2.9709   -1.6083 C   0  0  0  0  0  0  0  0  0  0  0  0
    3.5827    0.9485   -0.8037 C   0  0  0  0  0  0  0  0  0  0  0  0
    4.3725   -0.1430   -0.3907 C   0  0  0  0  0  0  0  0  0  0  0  0
    3.7487   -1.3079    0.0623 C   0  0  0  0  0  0  0  0  0  0  0  0
    2.3586   -1.3928    0.1125 C   0  0  0  0  0  0  0  0  0  0  0  0
    1.5330   -0.3234   -0.2755 C   0  0  0  0  0  0  0  0  0  0  0  0
    0.0333   -0.3592   -0.2619 C   0  0  0  0  0  0  0  0  0  0  0  0
   -0.7420    0.5796    0.6349 C   0  0  0  0  0  0  0  0  0  0  0  0
   -0.7046   -0.8843    0.9487 C   0  0  0  0  0  0  0  0  0  0  0  0
    2.1898    0.8320   -0.7397 C   0  0  0  0  0  0  0  0  0  0  0  0
    1.6736    2.0234   -1.2039 N   0  0  0  0  0  0  0  0  0  0  0  0
    5.7814    4.8556   -2.3512 H   0  0  0  0  0  0  0  0  0  0  0  0
    2.4212    6.4576   -2.9393 H   0  0  0  0  0  0  0  0  0  0  0  0
    3.9375    6.2540   -3.8345 H   0  0  0  0  0  0  0  0  0  0  0  0
    3.9558    6.9024   -2.1716 H   0  0  0  0  0  0  0  0  0  0  0  0
    6.0347    2.5411   -1.4514 H   0  0  0  0  0  0  0  0  0  0  0  0
    5.4561   -0.0839   -0.4280 H   0  0  0  0  0  0  0  0  0  0  0  0
    4.3532   -2.1554    0.3757 H   0  0  0  0  0  0  0  0  0  0  0  0
    1.8995   -2.3153    0.4627 H   0  0  0  0  0  0  0  0  0  0  0  0
   -0.4265   -0.5894   -1.2220 H   0  0  0  0  0  0  0  0  0  0  0  0
   -0.1979    1.2452    1.2963 H   0  0  0  0  0  0  0  0  0  0  0  0
   -1.6697    0.9931    0.2563 H   0  0  0  0  0  0  0  0  0  0  0  0
   -1.6038   -1.4653    0.7787 H   0  0  0  0  0  0  0  0  0  0  0  0
   -0.1390   -1.1941    1.8204 H   0  0  0  0  0  0  0  0  0  0  0  0
    0.6939    2.2462   -1.2782 H   0  0  0  0  0  0  0  0  0  0  0  0
 18  1  1  0
  1  2  2  0
  2  3  1  0
  3 19  1  0
  3 20  1  0
  3 21  1  0
  2  4  1  0
  4  5  2  0
  5  6  1  0
  1  7  1  0
  6  7  2  0
  7 22  1  0
  6  8  1  0
  8  9  2  0
  9 23  1  0
  9 10  1  0
 10 24  1  0
 10 11  2  0
 11 25  1  0
 11 12  1  0
 12 13  1  0
 13 26  1  0
 13 14  1  0
 14 27  1  0
 14 28  1  0
 13 15  1  0
 14 15  1  0
 15 29  1  0
 15 30  1  0
  8 16  1  0
 12 16  2  0
  5 17  1  0
 16 17  1  0
 17 31  1  0
M  END
>  <conformer_energy>  (1) 
35.70

>  <ligand_smiles>  (1) 
Cc1ccc2c(n1)[nH]c1c(C3CC3)cccc12

>  <ligand_conf_name>  (1) 
MOL_0_isomer_0_conf_0

>  <ligand_molecule_name>  (1) 
MOL_0_isomer_0

$$$$
