1L2S - prepared_ligand3_chiral_N_isomer_0_conf_0
     RDKit          3D

 26 27  0  0  0  0  0  0  0  0999 V2000
    2.3085   -3.8804    1.6704 C   0  0  0  0  0  0  0  0  0  0  0  0
    2.7410   -3.6956    3.3145 S   0  0  0  0  0  0  0  0  0  0  0  0
    2.7825   -1.9930    3.1745 C   0  0  0  0  0  0  0  0  0  0  0  0
    3.2127   -1.0423    4.3511 C   0  0  0  0  0  0  0  0  0  0  0  0
    2.8553   -1.3888    5.5161 O   0  0  0  0  0  0  0  0  0  0  0  0
    3.9053   -0.0361    4.0231 O   0  0  0  0  0  0  0  0  0  0  0  0
    2.4155   -1.5625    1.9174 C   0  0  0  0  0  0  0  0  0  0  0  0
    2.2414    0.0909    1.4211 S   0  0  0  0  0  6  0  0  0  0  0  0
    1.5263    0.8031    2.4544 O   0  0  0  0  0  0  0  0  0  0  0  0
    3.5300    0.4791    0.8877 O   0  0  0  0  0  0  0  0  0  0  0  0
    1.2337    0.0941    0.0415 N   0  0  0  0  0  0  0  0  0  0  0  0
   -0.1916    0.0424    0.1617 C   0  0  0  0  0  0  0  0  0  0  0  0
   -0.8644   -0.6387    1.1797 C   0  0  0  0  0  0  0  0  0  0  0  0
   -2.2606   -0.7405    1.1659 C   0  0  0  0  0  0  0  0  0  0  0  0
   -2.9866   -0.1912    0.1136 C   0  0  0  0  0  0  0  0  0  0  0  0
   -4.7016   -0.3230    0.0900 Cl  0  0  0  0  0  0  0  0  0  0  0  0
   -2.3277    0.4528   -0.9296 C   0  0  0  0  0  0  0  0  0  0  0  0
   -0.9332    0.5549   -0.9103 C   0  0  0  0  0  0  0  0  0  0  0  0
    2.1702   -2.6665    1.0350 C   0  0  0  0  0  0  0  0  0  0  0  0
    2.1740   -4.8686    1.2550 H   0  0  0  0  0  0  0  0  0  0  0  0
    1.5986    0.8135   -0.5808 H   0  0  0  0  0  0  0  0  0  0  0  0
   -0.3343   -1.0868    2.0159 H   0  0  0  0  0  0  0  0  0  0  0  0
   -2.7646   -1.2522    1.9818 H   0  0  0  0  0  0  0  0  0  0  0  0
   -2.8876    0.8709   -1.7612 H   0  0  0  0  0  0  0  0  0  0  0  0
   -0.4323    1.0431   -1.7420 H   0  0  0  0  0  0  0  0  0  0  0  0
    1.8917   -2.5703   -0.0065 H   0  0  0  0  0  0  0  0  0  0  0  0
 20  1  1  0
  1  2  1  0
  2  3  1  0
  3  4  1  0
  4  5  2  0
  4  6  1  0
  3  7  2  0
  7  8  1  0
  8  9  2  0
  8 10  2  0
  8 11  1  0
 11 21  1  0
 11 12  1  0
 12 13  2  0
 13 22  1  0
 13 14  1  0
 14 23  1  0
 14 15  2  0
 15 16  1  0
 15 17  1  0
 17 24  1  0
 12 18  1  0
 17 18  2  0
 18 25  1  0
  1 19  2  0
  7 19  1  0
 19 26  1  0
M  CHG  1   6  -1
M  END
>  <conformer_energy>  (1) 
-17.00

>  <ligand_smiles>  (1) 
O=C([O-])c1sccc1S(=O)(=O)Nc1ccc(Cl)cc1

>  <ligand_conf_name>  (1) 
1L2S - prepared_ligand3_chiral_N_isomer_0_conf_0

>  <ligand_molecule_name>  (1) 
1L2S - prepared_ligand3_chiral_N_isomer_0

>  <fragInfo>  (1) 
12 13 14 15 16 17 18 22 23 24 25
1 2 3 7 19 20 26
4 5 6
8 9 10
11 21


>  <torsionInfo>  (1) 
11 12 4 0
3 4 1 2
7 8 1 3
8 11 3 4


>  <atomInfo>  (1) 
1  -0.007212 A 
2  -0.141062 S 
3  0.070267  A 
4  0.082879  C 
5  -0.543882 OA
6  -0.543882 OA
7  0.107119  A 
8  0.262897  S 
9  -0.201192 OA
10 -0.201192 OA
11 -0.279588 N 
12 0.048911  A 
13 -0.036460 A 
14 -0.041442 A 
15 0.040701  A 
16 -0.084342 Cl
17 -0.041442 A 
18 -0.036460 A 
19 -0.030135 A 
20 0.074010  H 
21 0.179968  HD
22 0.064543  H 
23 0.063918  H 
24 0.063918  H 
25 0.064543  H 
26 0.064616  H 


$$$$
