MOL_0_isomer_0_conf_0
     RDKit          3D

 27 27  0  0  0  0  0  0  0  0999 V2000
    4.4273   -0.6205   -2.0094 C   0  0  0  0  0  0  0  0  0  0  0  0
    5.8182   -0.6810   -1.9030 C   0  0  0  0  0  0  0  0  0  0  0  0
    6.4385   -0.2147   -0.7404 C   0  0  0  0  0  0  0  0  0  0  0  0
    8.2065   -0.3002   -0.6108 S   0  0  0  0  0  6  0  0  0  0  0  0
    8.6545   -1.4743   -1.3190 O   0  0  0  0  0  0  0  0  0  0  0  0
    8.5764   -0.0258    0.7587 O   0  0  0  0  0  0  0  0  0  0  0  0
    8.6774    1.0564   -1.4878 N   0  0  0  0  0  0  0  0  0  0  0  0
    5.6833    0.2959    0.3196 C   0  0  0  0  0  0  0  0  0  0  0  0
    4.2905    0.3512    0.2107 C   0  0  0  0  0  0  0  0  0  0  0  0
    3.6581   -0.1153   -0.9510 C   0  0  0  0  0  0  0  0  0  0  0  0
    2.1801   -0.0665   -1.1165 C   0  0  0  0  0  0  0  0  0  0  0  0
    1.6884    0.0484   -2.2325 O   0  0  0  0  0  0  0  0  0  0  0  0
    1.4272   -0.1882    0.0290 N   0  0  0  0  0  0  0  0  0  0  0  0
   -0.0376   -0.1700   -0.0231 C   0  0  0  0  0  0  0  0  0  0  0  0
   -0.7105    0.2818    1.2695 C   0  0  0  0  0  0  0  0  0  0  0  0
   -0.4028    1.5637    1.5667 F   0  0  0  0  0  0  0  0  0  0  0  0
   -2.0543    0.1855    1.1850 F   0  0  0  0  0  0  0  0  0  0  0  0
   -0.3061   -0.4847    2.3103 F   0  0  0  0  0  0  0  0  0  0  0  0
    3.9401   -0.9763   -2.9164 H   0  0  0  0  0  0  0  0  0  0  0  0
    6.4060   -1.0932   -2.7217 H   0  0  0  0  0  0  0  0  0  0  0  0
    7.9160    1.4973   -2.0021 H   0  0  0  0  0  0  0  0  0  0  0  0
    9.1473    1.7121   -0.8610 H   0  0  0  0  0  0  0  0  0  0  0  0
    6.1669    0.6542    1.2268 H   0  0  0  0  0  0  0  0  0  0  0  0
    3.7185    0.7824    1.0281 H   0  0  0  0  0  0  0  0  0  0  0  0
    1.8697   -0.4356    0.9064 H   0  0  0  0  0  0  0  0  0  0  0  0
   -0.3528   -1.1912   -0.2627 H   0  0  0  0  0  0  0  0  0  0  0  0
   -0.3590    0.4766   -0.8466 H   0  0  0  0  0  0  0  0  0  0  0  0
 19  1  1  0
  1  2  2  0
  2 20  1  0
  2  3  1  0
  3  4  1  0
  4  5  2  0
  4  6  2  0
  4  7  1  0
  7 21  1  0
  7 22  1  0
  3  8  2  0
  8 23  1  0
  8  9  1  0
  9 24  1  0
  1 10  1  0
  9 10  2  0
 10 11  1  0
 11 12  2  0
 11 13  1  0
 13 25  1  0
 13 14  1  0
 14 26  1  0
 14 27  1  0
 14 15  1  0
 15 16  1  0
 15 17  1  0
 15 18  1  0
M  END
>  <conformer_energy>  (1) 
-14.87

>  <ligand_smiles>  (1) 
NS(=O)(=O)c1ccc(C(=O)NCC(F)(F)F)cc1

>  <ligand_conf_name>  (1) 
MOL_0_isomer_0_conf_0

>  <ligand_molecule_name>  (1) 
MOL_0_isomer_0

$$$$
