MOL_0_isomer_0_conf_0
     RDKit          3D

 28 28  0  0  0  0  0  0  0  0999 V2000
   -0.4128   -1.4237    1.9742 O   0  0  0  0  0  0  0  0  0  0  0  0
   -0.5676   -0.0496    1.6334 C   0  0  0  0  0  0  0  0  0  0  0  0
    0.0123    0.2483    0.2471 C   0  0  0  0  0  0  0  0  0  0  0  0
    1.5207    0.1701    0.0856 C   0  0  0  0  0  0  0  0  0  0  0  0
    2.3964    0.2149    1.1089 C   0  0  0  0  0  0  0  0  0  0  0  0
    3.8812    0.0006    0.9668 C   0  0  1  0  0  0  0  0  0  0  0  0
    4.4955    1.3024    1.1035 O   0  0  0  0  0  0  0  0  0  0  0  0
    4.3990   -0.9408    2.1229 C   0  0  0  0  0  0  0  0  0  0  0  0
    5.2550   -0.3739    2.8745 O   0  0  0  0  0  0  0  0  0  0  0  0
    3.9072   -2.1022    2.1773 O   0  0  0  0  0  1  0  0  0  0  0  0
    4.2865   -0.6093   -0.3715 C   0  0  0  0  0  0  0  0  0  0  0  0
    3.5526    0.0836   -1.5137 C   0  0  1  0  0  0  0  0  0  0  0  0
    3.9475   -0.5155   -2.7610 O   0  0  0  0  0  0  0  0  0  0  0  0
    2.0116   -0.0035   -1.3365 C   0  0  2  0  0  0  0  0  0  0  0  0
    1.3835    0.9954   -2.1506 O   0  0  0  0  0  0  0  0  0  0  0  0
    0.5473   -1.6134    1.9799 H   0  0  0  0  0  0  0  0  0  0  0  0
   -1.6432    0.1560    1.6233 H   0  0  0  0  0  0  0  0  0  0  0  0
   -0.1288    0.5709    2.4203 H   0  0  0  0  0  0  0  0  0  0  0  0
   -0.4366   -0.4689   -0.4526 H   0  0  0  0  0  0  0  0  0  0  0  0
   -0.3107    1.2511   -0.0576 H   0  0  0  0  0  0  0  0  0  0  0  0
    2.0676    0.3659    2.1334 H   0  0  0  0  0  0  0  0  0  0  0  0
    5.0862    1.1601    1.8859 H   0  0  0  0  0  0  0  0  0  0  0  0
    5.3684   -0.5095   -0.5299 H   0  0  0  0  0  0  0  0  0  0  0  0
    4.0774   -1.6867   -0.4075 H   0  0  0  0  0  0  0  0  0  0  0  0
    3.8636    1.1333   -1.5765 H   0  0  0  0  0  0  0  0  0  0  0  0
    3.7311   -1.4617   -2.6983 H   0  0  0  0  0  0  0  0  0  0  0  0
    1.6605   -0.9719   -1.7130 H   0  0  0  0  0  0  0  0  0  0  0  0
    1.7873    1.8399   -1.8844 H   0  0  0  0  0  0  0  0  0  0  0  0
 16  1  1  0
  1  2  1  0
  2 17  1  0
  2 18  1  0
  2  3  1  0
  3 19  1  0
  3 20  1  0
  3  4  1  0
  4  5  2  0
  5 21  1  0
  5  6  1  0
  6  7  1  1
  7 22  1  0
  6  8  1  0
  8  9  2  0
  8 10  1  0
  6 11  1  0
 11 23  1  0
 11 24  1  0
 11 12  1  0
 12 25  1  6
 12 13  1  0
 13 26  1  0
  4 14  1  0
 12 14  1  0
 14 27  1  6
 14 15  1  0
 15 28  1  0
M  CHG  1  10  -1
M  END
>  <conformer_energy>  (1) 
107.91

>  <ligand_smiles>  (1) 
O=C([O-])[C@]1(O)C=C(CCO)[C@@H](O)[C@H](O)C1

>  <ligand_conf_name>  (1) 
MOL_0_isomer_0_conf_0

>  <ligand_molecule_name>  (1) 
MOL_0_isomer_0

$$$$
