2BSM - prepared_ligand_conf_0
     RDKit          3D

 45 47  0  0  0  0  0  0  0  0999 V2000
   10.9247   -0.9708    2.1443 O   0  0  0  0  0  0  0  0  0  0  0  0
    9.6731   -0.5852    1.7503 C   0  0  0  0  0  0  0  0  0  0  0  0
    9.4456    0.7712    1.5656 C   0  0  0  0  0  0  0  0  0  0  0  0
    8.1822    1.2016    1.1619 C   0  0  0  0  0  0  0  0  0  0  0  0
    8.0374    2.5521    0.9688 O   0  0  0  0  0  0  0  0  0  0  0  0
    7.1213    0.2952    0.9597 C   0  0  0  0  0  0  0  0  0  0  0  0
    5.7818    0.7701    0.5772 C   0  0  0  0  0  0  0  0  0  0  0  0
    5.6599    1.8961   -0.1489 N   0  0  0  0  0  0  0  0  0  0  0  0
    4.3405    2.0186   -0.3523 N   0  0  0  0  0  0  0  0  0  0  0  0
    3.5703    1.0909    0.2966 C   0  0  0  0  0  0  0  0  0  0  0  0
    2.1335    1.1988    0.2151 C   0  0  0  0  0  0  0  0  0  0  0  0
    1.6023    1.9609   -0.5886 O   0  0  0  0  0  0  0  0  0  0  0  0
    1.3982    0.4465    1.0981 N   0  0  0  0  0  0  0  0  0  0  0  0
   -0.0484    0.4675    1.1157 C   0  0  0  0  0  0  0  0  0  0  0  0
   -0.5793    1.5958    1.9809 C   0  0  0  0  0  0  0  0  0  0  0  0
    4.4870    0.2352    0.8930 C   0  0  0  0  0  0  0  0  0  0  0  0
    4.1421   -0.9234    1.6908 C   0  0  0  0  0  0  0  0  0  0  0  0
    4.3700   -0.9157    3.0708 C   0  0  0  0  0  0  0  0  0  0  0  0
    4.0426   -2.0331    3.8468 C   0  0  0  0  0  0  0  0  0  0  0  0
    3.4866   -3.1642    3.2480 C   0  0  0  0  0  0  0  0  0  0  0  0
    3.1203   -4.3150    3.8881 O   0  0  0  0  0  0  0  0  0  0  0  0
    3.3889   -4.3909    5.2828 C   0  0  0  0  0  0  0  0  0  0  0  0
    3.2610   -3.1681    1.8687 C   0  0  0  0  0  0  0  0  0  0  0  0
    3.5886   -2.0571    1.0888 C   0  0  0  0  0  0  0  0  0  0  0  0
    7.3821   -1.0730    1.1296 C   0  0  0  0  0  0  0  0  0  0  0  0
    8.6491   -1.5069    1.5277 C   0  0  0  0  0  0  0  0  0  0  0  0
    8.9347   -3.1946    1.7428 Cl  0  0  0  0  0  0  0  0  0  0  0  0
   10.9223   -1.9440    2.2087 H   0  0  0  0  0  0  0  0  0  0  0  0
   10.2437    1.4904    1.7235 H   0  0  0  0  0  0  0  0  0  0  0  0
    7.1871    2.6727    0.4871 H   0  0  0  0  0  0  0  0  0  0  0  0
    3.9964    2.7870   -0.9222 H   0  0  0  0  0  0  0  0  0  0  0  0
    1.8667   -0.1160    1.7929 H   0  0  0  0  0  0  0  0  0  0  0  0
   -0.3816   -0.4978    1.5099 H   0  0  0  0  0  0  0  0  0  0  0  0
   -0.4240    0.5672    0.0918 H   0  0  0  0  0  0  0  0  0  0  0  0
   -1.6732    1.5787    2.0016 H   0  0  0  0  0  0  0  0  0  0  0  0
   -0.2588    2.5710    1.6000 H   0  0  0  0  0  0  0  0  0  0  0  0
   -0.2143    1.5040    3.0093 H   0  0  0  0  0  0  0  0  0  0  0  0
    4.8051   -0.0427    3.5545 H   0  0  0  0  0  0  0  0  0  0  0  0
    4.2358   -1.9870    4.9137 H   0  0  0  0  0  0  0  0  0  0  0  0
    3.0660   -5.3763    5.6323 H   0  0  0  0  0  0  0  0  0  0  0  0
    2.8172   -3.6378    5.8350 H   0  0  0  0  0  0  0  0  0  0  0  0
    4.4614   -4.3005    5.4845 H   0  0  0  0  0  0  0  0  0  0  0  0
    2.8303   -4.0489    1.3973 H   0  0  0  0  0  0  0  0  0  0  0  0
    3.4093   -2.0873    0.0161 H   0  0  0  0  0  0  0  0  0  0  0  0
    6.6122   -1.8153    0.9431 H   0  0  0  0  0  0  0  0  0  0  0  0
 28  1  1  0
  1  2  1  0
  2  3  2  0
  3 29  1  0
  3  4  1  0
  4  5  1  0
  5 30  1  0
  4  6  2  0
  6  7  1  0
  7  8  2  0
  8  9  1  0
  9 31  1  0
  9 10  1  0
 10 11  1  0
 11 12  2  0
 11 13  1  0
 13 32  1  0
 13 14  1  0
 14 33  1  0
 14 34  1  0
 14 15  1  0
 15 35  1  0
 15 36  1  0
 15 37  1  0
  7 16  1  0
 10 16  2  0
 16 17  1  0
 17 18  2  0
 18 38  1  0
 18 19  1  0
 19 39  1  0
 19 20  2  0
 20 21  1  0
 21 22  1  0
 22 40  1  0
 22 41  1  0
 22 42  1  0
 20 23  1  0
 23 43  1  0
 17 24  1  0
 23 24  2  0
 24 44  1  0
  6 25  1  0
 25 45  1  0
  2 26  1  0
 25 26  2  0
 26 27  1  0
M  END
>  <conformer_energy>  (1) 
-4.99

>  <ligand_smiles>  (1) 
CCNC(=O)c1[nH]nc(-c2cc(Cl)c(O)cc2O)c1-c1ccc(OC)cc1

>  <ligand_conf_name>  (1) 
2BSM - prepared_ligand_conf_0

>  <ligand_molecule_name>  (1) 
2BSM - prepared_ligand

>  <fragInfo>  (1) 
1 2 3 4 5 6 25 26 27 28 29 30 45
7 8 9 10 16 31
11 12 13 32
14 15 33 34 35 36 37
17 18 19 20 23 24 38 39 43 44
21 22 40 41 42


>  <torsionInfo>  (1) 
6 7 0 1
10 11 1 2
16 17 1 4
13 14 2 3
20 21 4 5


>  <atomInfo>  (1) 
1  -0.506250 OA
2  0.137402  A 
3  0.023979  A 
4  0.128361  A 
5  -0.507104 OA
6  0.046248  A 
7  0.104484  A 
8  -0.174029 NA
9  -0.271658 N 
10 0.131047  A 
11 0.269452  C 
12 -0.267517 OA
13 -0.350980 N 
14 0.014894  C 
15 -0.047672 C 
16 0.040665  A 
17 -0.013507 A 
18 -0.050538 A 
19 -0.019365 A 
20 0.118401  A 
21 -0.496768 OA
22 0.077507  C 
23 -0.019365 A 
24 -0.050538 A 
25 -0.026475 A 
26 0.083255  A 
27 -0.080258 Cl
28 0.293178  HD
29 0.070218  H 
30 0.293131  HD
31 0.190329  HD
32 0.163345  HD
33 0.048829  H 
34 0.048829  H 
35 0.024832  H 
36 0.024832  H 
37 0.024832  H 
38 0.063064  H 
39 0.066212  H 
40 0.066861  H 
41 0.066861  H 
42 0.066861  H 
43 0.066212  H 
44 0.063064  H 
45 0.064840  H 


$$$$
