MOL_0_isomer_0_conf_0
     RDKit          3D

 71 76  0  0  0  0  0  0  0  0999 V2000
    6.2137   -2.1470   -7.7634 C   0  0  0  0  0  0  0  0  0  0  0  0
    5.6299   -2.9073   -6.8126 N   0  0  0  0  0  0  0  0  0  0  0  0
    6.4436   -3.6727   -6.0344 C   0  0  0  0  0  0  0  0  0  0  0  0
    5.8141   -4.5221   -4.9270 C   0  0  1  0  0  0  0  0  0  0  0  0
    5.5145   -3.7233   -3.7294 N   0  0  0  0  0  0  0  0  0  0  0  0
    6.4234   -3.7347   -2.6780 C   0  0  0  0  0  0  0  0  0  0  0  0
    7.4422   -4.4200   -2.6669 O   0  0  0  0  0  0  0  0  0  0  0  0
    6.1164   -2.8644   -1.5034 C   0  0  0  0  0  0  0  0  0  0  0  0
    7.0961   -2.7139   -0.5099 C   0  0  0  0  0  0  0  0  0  0  0  0
    6.8443   -1.9529    0.6381 C   0  0  0  0  0  0  0  0  0  0  0  0
    7.9045   -1.8024    1.7008 C   0  0  0  0  0  0  0  0  0  0  0  0
    7.4784   -2.3397    2.9849 N   0  0  0  0  0  0  0  0  0  0  0  0
    7.3731   -3.6659    3.3414 C   0  0  0  0  0  0  0  0  0  0  0  0
    7.6370   -4.8036    2.4253 C   0  0  0  0  0  0  0  0  0  0  0  0
    6.9928   -3.7761    4.5997 N   0  0  0  0  0  0  0  0  0  0  0  0
    6.8535   -2.4976    5.0670 C   0  0  0  0  0  0  0  0  0  0  0  0
    7.1525   -1.5872    4.0838 C   0  0  0  0  0  0  0  0  0  0  0  0
    5.5924   -1.3365    0.7704 C   0  0  0  0  0  0  0  0  0  0  0  0
    4.6025   -1.4858   -0.2143 C   0  0  0  0  0  0  0  0  0  0  0  0
    3.3250   -0.8461    0.0088 C   0  0  0  0  0  0  0  0  0  0  0  0
    2.8745    0.4668   -0.3064 C   0  0  0  0  0  0  0  0  0  0  0  0
    3.6755    1.5352   -0.9973 C   0  0  0  0  0  0  0  0  0  0  0  0
    4.2190    1.0839   -2.1628 F   0  0  0  0  0  0  0  0  0  0  0  0
    4.7173    1.9589   -0.2284 F   0  0  0  0  0  0  0  0  0  0  0  0
    2.9531    2.6428   -1.3149 F   0  0  0  0  0  0  0  0  0  0  0  0
    1.6026    0.6441    0.1096 N   0  0  0  0  0  0  0  0  0  0  0  0
    1.2724   -0.5259    0.6877 N   0  0  0  0  0  0  0  0  0  0  0  0
   -0.0450   -0.6951    1.2726 C   0  0  0  0  0  0  0  0  0  0  0  0
   -0.1067   -0.1852    2.7011 C   0  0  0  0  0  0  0  0  0  0  0  0
    2.2695   -1.4542    0.6482 C   0  0  0  0  0  0  0  0  0  0  0  0
    4.8637   -2.2387   -1.3729 C   0  0  0  0  0  0  0  0  0  0  0  0
    3.8304   -2.4576   -2.4493 C   0  0  0  0  0  0  0  0  0  0  0  0
    4.5039   -2.6737   -3.7991 C   0  0  0  0  0  0  0  0  0  0  0  0
    4.5820   -5.2593   -5.4166 C   0  0  0  0  0  0  0  0  0  0  0  0
    4.6725   -6.7031   -5.8551 C   0  0  0  0  0  0  0  0  0  0  0  0
    3.9620   -6.3538   -4.5786 C   0  0  0  0  0  0  0  0  0  0  0  0
    7.8330   -3.6537   -6.1761 C   0  0  0  0  0  0  0  0  0  0  0  0
    8.4150   -2.8479   -7.1586 C   0  0  0  0  0  0  0  0  0  0  0  0
    9.9012   -2.8410   -7.3496 C   0  0  0  0  0  0  0  0  0  0  0  0
    7.5808   -2.0892   -7.9773 C   0  0  0  0  0  0  0  0  0  0  0  0
    5.5294   -1.5634   -8.3721 H   0  0  0  0  0  0  0  0  0  0  0  0
    6.5492   -5.2886   -4.6494 H   0  0  0  0  0  0  0  0  0  0  0  0
    8.0583   -3.2102   -0.6354 H   0  0  0  0  0  0  0  0  0  0  0  0
    8.8349   -2.3129    1.4286 H   0  0  0  0  0  0  0  0  0  0  0  0
    8.1455   -0.7410    1.8331 H   0  0  0  0  0  0  0  0  0  0  0  0
    7.7273   -5.7355    2.9935 H   0  0  0  0  0  0  0  0  0  0  0  0
    8.5691   -4.6628    1.8702 H   0  0  0  0  0  0  0  0  0  0  0  0
    6.8137   -4.9224    1.7151 H   0  0  0  0  0  0  0  0  0  0  0  0
    6.5480   -2.3019    6.0868 H   0  0  0  0  0  0  0  0  0  0  0  0
    7.1578   -0.5057    4.0779 H   0  0  0  0  0  0  0  0  0  0  0  0
    5.3747   -0.7455    1.6606 H   0  0  0  0  0  0  0  0  0  0  0  0
   -0.2904   -1.7621    1.2350 H   0  0  0  0  0  0  0  0  0  0  0  0
   -0.7613   -0.1627    0.6373 H   0  0  0  0  0  0  0  0  0  0  0  0
   -1.1114   -0.3261    3.1120 H   0  0  0  0  0  0  0  0  0  0  0  0
    0.1374    0.8812    2.7515 H   0  0  0  0  0  0  0  0  0  0  0  0
    0.6025   -0.7206    3.3409 H   0  0  0  0  0  0  0  0  0  0  0  0
    2.1525   -2.4406    1.0774 H   0  0  0  0  0  0  0  0  0  0  0  0
    3.2303   -3.3358   -2.1807 H   0  0  0  0  0  0  0  0  0  0  0  0
    3.1567   -1.5992   -2.5418 H   0  0  0  0  0  0  0  0  0  0  0  0
    3.7387   -2.9227   -4.5389 H   0  0  0  0  0  0  0  0  0  0  0  0
    5.0074   -1.7541   -4.1233 H   0  0  0  0  0  0  0  0  0  0  0  0
    3.9044   -4.6244   -5.9775 H   0  0  0  0  0  0  0  0  0  0  0  0
    5.6243   -7.2160   -5.7794 H   0  0  0  0  0  0  0  0  0  0  0  0
    4.0751   -7.0061   -6.7071 H   0  0  0  0  0  0  0  0  0  0  0  0
    2.8809   -6.4244   -4.5617 H   0  0  0  0  0  0  0  0  0  0  0  0
    4.4393   -6.6216   -3.6428 H   0  0  0  0  0  0  0  0  0  0  0  0
    8.4552   -4.2557   -5.5180 H   0  0  0  0  0  0  0  0  0  0  0  0
   10.4135   -2.8254   -6.3822 H   0  0  0  0  0  0  0  0  0  0  0  0
   10.2251   -1.9554   -7.9056 H   0  0  0  0  0  0  0  0  0  0  0  0
   10.2118   -3.7323   -7.9037 H   0  0  0  0  0  0  0  0  0  0  0  0
    7.9811   -1.4585   -8.7643 H   0  0  0  0  0  0  0  0  0  0  0  0
 41  1  1  0
  1  2  2  0
  2  3  1  0
  3  4  1  0
  4 42  1  1
  4  5  1  0
  5  6  1  0
  6  7  2  0
  6  8  1  0
  8  9  2  0
  9 43  1  0
  9 10  1  0
 10 11  1  0
 11 44  1  0
 11 45  1  0
 11 12  1  0
 12 13  1  0
 13 14  1  0
 14 46  1  0
 14 47  1  0
 14 48  1  0
 13 15  2  0
 15 16  1  0
 16 49  1  0
 12 17  1  0
 16 17  2  0
 17 50  1  0
 10 18  2  0
 18 51  1  0
 18 19  1  0
 19 20  1  0
 20 21  1  0
 21 22  1  0
 22 23  1  0
 22 24  1  0
 22 25  1  0
 21 26  2  0
 26 27  1  0
 27 28  1  0
 28 52  1  0
 28 53  1  0
 28 29  1  0
 29 54  1  0
 29 55  1  0
 29 56  1  0
 20 30  2  0
 27 30  1  0
 30 57  1  0
  8 31  1  0
 19 31  2  0
 31 32  1  0
 32 58  1  0
 32 59  1  0
  5 33  1  0
 32 33  1  0
 33 60  1  0
 33 61  1  0
  4 34  1  0
 34 62  1  0
 34 35  1  0
 35 63  1  0
 35 64  1  0
 34 36  1  0
 35 36  1  0
 36 65  1  0
 36 66  1  0
  3 37  2  0
 37 67  1  0
 37 38  1  0
 38 39  1  0
 39 68  1  0
 39 69  1  0
 39 70  1  0
  1 40  1  0
 38 40  2  0
 40 71  1  0
M  END
>  <conformer_energy>  (1) 
167.61

>  <ligand_smiles>  (1) 
CCn1cc(-c2cc(Cn3ccnc3C)cc3c2CCN([C@H](c2cc(C)ccn2)C2CC2)C3=O)c(C(F)(F)F)n1

>  <ligand_conf_name>  (1) 
MOL_0_isomer_0_conf_0

>  <ligand_molecule_name>  (1) 
MOL_0_isomer_0

$$$$
