1W1P - prepared_ligand2_conf_0
     RDKit          3D

 21 22  0  0  0  0  0  0  0  0999 V2000
   17.8533   42.4459  101.8217 N   0  0  0  0  0  0  0  0  0  0  0  0
   17.0203   43.5444  101.7748 C   0  0  0  0  0  0  0  0  0  0  0  0
   16.0519   43.5761  101.0243 O   0  0  0  0  0  0  0  0  0  0  0  0
   17.3280   44.6028  102.8387 C   0  0  1  0  0  0  0  0  0  0  0  0
   18.7667   44.6835  103.0729 N   0  0  0  0  0  0  0  0  0  0  0  0
   19.5487   43.5610  103.2412 C   0  0  0  0  0  0  0  0  0  0  0  0
   20.6849   43.5867  103.7024 O   0  0  0  0  0  0  0  0  0  0  0  0
   18.8094   42.2570  102.9070 C   0  0  0  0  0  0  0  0  0  0  0  0
   19.2258   46.0459  103.2275 C   0  0  0  0  0  0  0  0  0  0  0  0
   17.9426   46.8681  103.2577 C   0  0  0  0  0  0  0  0  0  0  0  0
   16.9546   46.0266  102.4484 C   0  0  0  0  0  0  0  0  0  0  0  0
   17.6452   41.6945  101.1764 H   0  0  0  0  0  0  0  0  0  0  0  0
   16.8512   44.3044  103.7803 H   0  0  0  0  0  0  0  0  0  0  0  0
   19.5313   41.5010  102.5872 H   0  0  0  0  0  0  0  0  0  0  0  0
   18.2676   41.9125  103.7928 H   0  0  0  0  0  0  0  0  0  0  0  0
   19.8301   46.1561  104.1325 H   0  0  0  0  0  0  0  0  0  0  0  0
   19.8423   46.2917  102.3564 H   0  0  0  0  0  0  0  0  0  0  0  0
   17.5845   46.9608  104.2903 H   0  0  0  0  0  0  0  0  0  0  0  0
   18.0778   47.8747  102.8527 H   0  0  0  0  0  0  0  0  0  0  0  0
   15.9123   46.2645  102.6807 H   0  0  0  0  0  0  0  0  0  0  0  0
   17.1092   46.1967  101.3757 H   0  0  0  0  0  0  0  0  0  0  0  0
 12  1  1  0
  1  2  1  0
  2  3  2  0
  2  4  1  0
  4 13  1  1
  4  5  1  0
  5  6  1  0
  6  7  2  0
  1  8  1  0
  6  8  1  0
  8 14  1  0
  8 15  1  0
  5  9  1  0
  9 16  1  0
  9 17  1  0
  9 10  1  0
 10 18  1  0
 10 19  1  0
  4 11  1  0
 10 11  1  0
 11 20  1  0
 11 21  1  0
M  END
>  <conformer_energy>  (1) 
60.59

>  <ligand_smiles>  (1) 
O=C1NCC(=O)N2CCC[C@@H]12

>  <ligand_conf_name>  (1) 
1W1P - prepared_ligand2_conf_0

>  <ligand_molecule_name>  (1) 
1W1P - prepared_ligand2

>  <fragInfo>  (1) 
1 2 3 4 5 6 7 8 9 10 11 12 13 14 15 16 17 18 19 20 21


>  <torsionInfo>  (1) 


>  <atomInfo>  (1) 
1  -0.345238 N 
2  0.242743  C 
3  -0.272705 OA
4  0.110624  C 
5  -0.329138 N 
6  0.242149  C 
7  -0.272812 OA
8  0.096934  C 
9  0.021467  C 
10 -0.032937 C 
11 -0.021768 C 
12 0.163591  HD
13 0.063451  H 
14 0.059484  H 
15 0.059484  H 
16 0.049408  H 
17 0.049408  H 
18 0.028558  H 
19 0.028558  H 
20 0.029370  H 
21 0.029370  H 


$$$$
