1OF1 - prepared_ligand2_conf_0
     RDKit          3D

 34 36  0  0  0  0  0  0  0  0999 V2000
   -0.4875   -0.5643    1.1603 O   0  0  0  0  0  0  0  0  0  0  0  0
    0.1506   -0.5432   -0.1110 C   0  0  0  0  0  0  0  0  0  0  0  0
    1.6064   -0.1050    0.0179 C   0  0  1  0  0  0  0  0  0  0  0  0
    2.3866   -0.1734   -1.2717 C   0  0  2  0  0  0  0  0  0  0  0  0
    3.8712   -0.3692   -1.2447 C   0  0  0  0  0  0  0  0  0  0  0  0
    3.2954    1.0305   -1.3476 C   0  0  1  0  0  0  0  0  0  0  0  0
    3.5099    1.7963   -2.5596 N   0  0  0  0  0  0  0  0  0  0  0  0
    2.4186    2.1519   -3.3248 C   0  0  0  0  0  0  0  0  0  0  0  0
    2.5304    2.8724   -4.4476 C   0  0  0  0  0  0  0  0  0  0  0  0
    1.3798    3.2801   -5.3074 C   0  0  0  0  0  0  0  0  0  0  0  0
    3.8855    3.3001   -4.8696 C   0  0  0  0  0  0  0  0  0  0  0  0
    4.0698    3.9531   -5.8904 O   0  0  0  0  0  0  0  0  0  0  0  0
    4.9112    2.9285   -4.0503 N   0  0  0  0  0  0  0  0  0  0  0  0
    4.8034    2.2005   -2.8937 C   0  0  0  0  0  0  0  0  0  0  0  0
    5.8052    1.9505   -2.2256 O   0  0  0  0  0  0  0  0  0  0  0  0
    3.0982    1.8273   -0.0693 C   0  0  0  0  0  0  0  0  0  0  0  0
    1.7166    1.3795    0.4325 C   0  0  2  0  0  0  0  0  0  0  0  0
    1.5592    1.5355    1.8335 O   0  0  0  0  0  0  0  0  0  0  0  0
   -0.2527    0.2611    1.6293 H   0  0  0  0  0  0  0  0  0  0  0  0
    0.0909   -1.5532   -0.5296 H   0  0  0  0  0  0  0  0  0  0  0  0
   -0.4145    0.1200   -0.7749 H   0  0  0  0  0  0  0  0  0  0  0  0
    2.0858   -0.7310    0.7828 H   0  0  0  0  0  0  0  0  0  0  0  0
    1.8352   -0.5020   -2.1404 H   0  0  0  0  0  0  0  0  0  0  0  0
    4.3564   -0.6607   -0.3200 H   0  0  0  0  0  0  0  0  0  0  0  0
    4.3441   -0.7940   -2.1243 H   0  0  0  0  0  0  0  0  0  0  0  0
    1.4470    1.8208   -2.9716 H   0  0  0  0  0  0  0  0  0  0  0  0
    1.4922    2.8734   -6.3177 H   0  0  0  0  0  0  0  0  0  0  0  0
    1.3187    4.3712   -5.3754 H   0  0  0  0  0  0  0  0  0  0  0  0
    0.4264    2.9183   -4.9079 H   0  0  0  0  0  0  0  0  0  0  0  0
    5.8391    3.2204   -4.3135 H   0  0  0  0  0  0  0  0  0  0  0  0
    3.8862    1.6053    0.6598 H   0  0  0  0  0  0  0  0  0  0  0  0
    3.1099    2.9098   -0.2382 H   0  0  0  0  0  0  0  0  0  0  0  0
    0.9429    1.9757   -0.0671 H   0  0  0  0  0  0  0  0  0  0  0  0
    2.3221    1.1189    2.2745 H   0  0  0  0  0  0  0  0  0  0  0  0
 19  1  1  0
  1  2  1  0
  2 20  1  0
  2 21  1  0
  2  3  1  0
  3 22  1  1
  3  4  1  0
  4 23  1  6
  4  5  1  0
  5 24  1  0
  5 25  1  0
  4  6  1  0
  5  6  1  0
  6  7  1  6
  7  8  1  0
  8 26  1  0
  8  9  2  0
  9 10  1  0
 10 27  1  0
 10 28  1  0
 10 29  1  0
  9 11  1  0
 11 12  2  0
 11 13  1  0
 13 30  1  0
  7 14  1  0
 13 14  1  0
 14 15  2  0
  6 16  1  0
 16 31  1  0
 16 32  1  0
  3 17  1  0
 16 17  1  0
 17 33  1  6
 17 18  1  0
 18 34  1  0
M  END
>  <conformer_energy>  (1) 
-27.35

>  <ligand_smiles>  (1) 
Cc1cn([C@@]23C[C@H](O)[C@@H](CO)[C@@H]2C3)c(=O)[nH]c1=O

>  <ligand_conf_name>  (1) 
1OF1 - prepared_ligand2_conf_0

>  <ligand_molecule_name>  (1) 
1OF1 - prepared_ligand2

>  <fragInfo>  (1) 
3 4 5 6 16 17 18 22 23 24 25 31 32 33 34
1 2 19 20 21
7 8 9 10 11 12 13 14 15 26 27 28 29 30


>  <torsionInfo>  (1) 
2 3 1 0
6 7 0 2


>  <atomInfo>  (1) 
1  -0.395973 OA
2  0.048706  C 
3  0.013233  C 
4  -0.007617 C 
5  -0.023298 C 
6  0.055195  C 
7  -0.293819 N 
8  0.017656  A 
9  0.030677  A 
10 -0.032829 C 
11 0.255901  A 
12 -0.269108 OA
13 -0.273756 N 
14 0.328358  A 
15 -0.247761 OA
16 -0.002346 C 
17 0.061601  C 
18 -0.392645 OA
19 0.210053  HD
20 0.056771  H 
21 0.056771  H 
22 0.035678  H 
23 0.033257  H 
24 0.029473  H 
25 0.029473  H 
26 0.082476  H 
27 0.028222  H 
28 0.028222  H 
29 0.028222  H 
30 0.174695  HD
31 0.031761  H 
32 0.031761  H 
33 0.060524  H 
34 0.210464  HD


$$$$
