MOL_0_isomer_0_conf_0
     RDKit          3D

 60 64  0  0  0  0  0  0  0  0999 V2000
    7.1161   -4.2438   -0.4026 O   0  0  0  0  0  0  0  0  0  0  0  0
    7.7659   -3.0041   -0.1451 C   0  0  0  0  0  0  0  0  0  0  0  0
    6.8553   -2.0790    0.6682 C   0  0  1  0  0  0  0  0  0  0  0  0
    7.5868   -0.8782    0.9612 O   0  0  0  0  0  0  0  0  0  0  0  0
    6.8779    0.0167    1.8135 C   0  0  1  0  0  0  0  0  0  0  0  0
    7.7562    1.2153    2.0457 C   0  0  0  0  0  0  0  0  0  0  0  0
    7.3135    2.4625    2.1112 N   0  0  0  0  0  0  0  0  0  0  0  0
    8.4545    3.2051    2.1674 C   0  0  0  0  0  0  0  0  0  0  0  0
    8.4464    4.6811    2.1996 C   0  0  0  0  0  0  0  0  0  0  0  0
    9.5805    2.4955    2.1865 N   0  0  0  0  0  0  0  0  0  0  0  0
    9.1426    1.2162    2.1582 N   0  0  0  0  0  0  0  0  0  0  0  0
   10.0772    0.1618    2.3611 C   0  0  0  0  0  0  0  0  0  0  0  0
    9.6838   -0.9637    3.1076 C   0  0  0  0  0  0  0  0  0  0  0  0
   10.5907   -1.9885    3.3730 C   0  0  0  0  0  0  0  0  0  0  0  0
   10.0846   -3.3559    4.2859 Cl  0  0  0  0  0  0  0  0  0  0  0  0
   11.9001   -1.9050    2.9215 C   0  0  0  0  0  0  0  0  0  0  0  0
   12.3057   -0.7884    2.1895 C   0  0  0  0  0  0  0  0  0  0  0  0
   11.4077    0.2594    1.8855 C   0  0  0  0  0  0  0  0  0  0  0  0
   11.9199    1.3980    1.0179 C   0  0  0  0  0  0  0  0  0  0  0  0
   12.2715    2.5063    1.7213 F   0  0  0  0  0  0  0  0  0  0  0  0
   11.0511    1.7813    0.0431 F   0  0  0  0  0  0  0  0  0  0  0  0
   13.0554    1.0441    0.3376 F   0  0  0  0  0  0  0  0  0  0  0  0
    5.5195    0.4474    1.1985 C   0  0  2  0  0  0  0  0  0  0  0  0
    4.7752    1.1983    2.1767 O   0  0  0  0  0  0  0  0  0  0  0  0
    4.7136   -0.7960    0.7965 C   0  0  1  0  0  0  0  0  0  0  0  0
    3.4384   -0.4395    0.1875 N   0  0  0  0  0  0  0  0  0  0  0  0
    3.3023   -0.3489   -1.1486 N   0  0  0  0  0  0  0  0  0  0  0  0
    2.0386   -0.0447   -1.4026 N   0  0  0  0  0  0  0  0  0  0  0  0
    1.3693    0.0578   -0.2093 C   0  0  0  0  0  0  0  0  0  0  0  0
   -0.0382    0.3994   -0.1042 C   0  0  0  0  0  0  0  0  0  0  0  0
   -0.7096    0.4117    1.1254 C   0  0  0  0  0  0  0  0  0  0  0  0
   -2.0640    0.7465    1.1854 C   0  0  0  0  0  0  0  0  0  0  0  0
   -2.6673    0.7412    2.3835 F   0  0  0  0  0  0  0  0  0  0  0  0
   -2.7748    1.0756    0.0365 C   0  0  0  0  0  0  0  0  0  0  0  0
   -4.4434    1.4867    0.1254 Cl  0  0  0  0  0  0  0  0  0  0  0  0
   -2.1106    1.0643   -1.1842 C   0  0  0  0  0  0  0  0  0  0  0  0
   -2.7587    1.3751   -2.3167 F   0  0  0  0  0  0  0  0  0  0  0  0
   -0.7582    0.7298   -1.2619 C   0  0  0  0  0  0  0  0  0  0  0  0
    2.2480   -0.2068    0.8168 C   0  0  0  0  0  0  0  0  0  0  0  0
    5.5566   -1.7371   -0.0857 C   0  0  1  0  0  0  0  0  0  0  0  0
    5.9157   -1.1165   -1.3300 O   0  0  0  0  0  0  0  0  0  0  0  0
    7.0350   -4.3221   -1.3708 H   0  0  0  0  0  0  0  0  0  0  0  0
    8.6835   -3.2109    0.4173 H   0  0  0  0  0  0  0  0  0  0  0  0
    8.0785   -2.5418   -1.0888 H   0  0  0  0  0  0  0  0  0  0  0  0
    6.6055   -2.5828    1.6115 H   0  0  0  0  0  0  0  0  0  0  0  0
    6.6960   -0.4606    2.7851 H   0  0  0  0  0  0  0  0  0  0  0  0
    7.4235    5.0667    2.1446 H   0  0  0  0  0  0  0  0  0  0  0  0
    9.0084    5.0877    1.3529 H   0  0  0  0  0  0  0  0  0  0  0  0
    8.8987    5.0476    3.1262 H   0  0  0  0  0  0  0  0  0  0  0  0
    8.6909   -1.0441    3.5364 H   0  0  0  0  0  0  0  0  0  0  0  0
   12.6109   -2.6999    3.1343 H   0  0  0  0  0  0  0  0  0  0  0  0
   13.3374   -0.7423    1.8392 H   0  0  0  0  0  0  0  0  0  0  0  0
    5.6686    1.0909    0.3213 H   0  0  0  0  0  0  0  0  0  0  0  0
    5.2952    2.0206    2.3223 H   0  0  0  0  0  0  0  0  0  0  0  0
    4.4370   -1.3417    1.7104 H   0  0  0  0  0  0  0  0  0  0  0  0
   -0.2063    0.1633    2.0546 H   0  0  0  0  0  0  0  0  0  0  0  0
   -0.2784    0.7345   -2.2385 H   0  0  0  0  0  0  0  0  0  0  0  0
    2.1571   -0.2229    1.8921 H   0  0  0  0  0  0  0  0  0  0  0  0
    4.9941   -2.6484   -0.3193 H   0  0  0  0  0  0  0  0  0  0  0  0
    5.0795   -0.8577   -1.7793 H   0  0  0  0  0  0  0  0  0  0  0  0
 42  1  1  0
  1  2  1  0
  2 43  1  0
  2 44  1  0
  2  3  1  0
  3 45  1  1
  3  4  1  0
  4  5  1  0
  5 46  1  1
  5  6  1  0
  6  7  2  0
  7  8  1  0
  8  9  1  0
  9 47  1  0
  9 48  1  0
  9 49  1  0
  8 10  2  0
  6 11  1  0
 10 11  1  0
 11 12  1  0
 12 13  2  0
 13 50  1  0
 13 14  1  0
 14 15  1  0
 14 16  2  0
 16 51  1  0
 16 17  1  0
 17 52  1  0
 12 18  1  0
 17 18  2  0
 18 19  1  0
 19 20  1  0
 19 21  1  0
 19 22  1  0
  5 23  1  0
 23 53  1  6
 23 24  1  0
 24 54  1  0
 23 25  1  0
 25 55  1  1
 25 26  1  0
 26 27  1  0
 27 28  2  0
 28 29  1  0
 29 30  1  0
 30 31  2  0
 31 56  1  0
 31 32  1  0
 32 33  1  0
 32 34  2  0
 34 35  1  0
 34 36  1  0
 36 37  1  0
 30 38  1  0
 36 38  2  0
 38 57  1  0
 26 39  1  0
 29 39  2  0
 39 58  1  0
  3 40  1  0
 25 40  1  0
 40 59  1  6
 40 41  1  0
 41 60  1  0
M  END
>  <conformer_energy>  (1) 
143.09

>  <ligand_smiles>  (1) 
Cc1nc([C@@H]2O[C@H](CO)[C@H](O)[C@H](n3cc(-c4cc(F)c(Cl)c(F)c4)nn3)[C@H]2O)n(-c2cc(Cl)ccc2C(F)(F)F)n1

>  <ligand_conf_name>  (1) 
MOL_0_isomer_0_conf_0

>  <ligand_molecule_name>  (1) 
MOL_0_isomer_0

$$$$
