1V0P - prepared_ligand2_conf_0
     RDKit          3D

 54 56  0  0  0  0  0  0  0  0999 V2000
   -0.8006   -1.8693    1.2999 O   0  0  0  0  0  0  0  0  0  0  0  0
   -0.7993   -0.4450    1.1758 C   0  0  0  0  0  0  0  0  0  0  0  0
   -0.1316    0.0189   -0.1428 C   0  0  2  0  0  0  0  0  0  0  0  0
    1.3172    0.0255   -0.0151 N   0  0  0  0  0  0  0  0  0  0  0  0
    2.1186   -1.0795   -0.0628 C   0  0  0  0  0  0  0  0  0  0  0  0
    3.4359   -0.8167   -0.0892 N   0  0  0  0  0  0  0  0  0  0  0  0
    4.3496   -1.8258   -0.1288 C   0  0  0  0  0  0  0  0  0  0  0  0
    5.7344   -1.6100   -0.1666 N   0  0  0  0  0  0  0  0  0  0  0  0
    6.5250   -0.4505   -0.1718 C   0  0  0  0  0  0  0  0  0  0  0  0
    6.0118    0.8445   -0.1209 C   0  0  0  0  0  0  0  0  0  0  0  0
    6.8621    1.9571   -0.1315 C   0  0  0  0  0  0  0  0  0  0  0  0
    8.2596    1.8140   -0.1890 C   0  0  0  0  0  0  0  0  0  0  0  0
    9.1071    3.0524   -0.1727 C   0  0  0  0  0  0  0  0  0  0  0  0
   10.0754    3.0924    0.6461 O   0  0  0  0  0  0  0  0  0  0  0  0
    8.7448    3.9906   -0.9511 O   0  0  0  0  0  0  0  0  0  0  0  0
    8.7816    0.5226   -0.2601 C   0  0  0  0  0  0  0  0  0  0  0  0
   10.4706    0.1880   -0.4313 Cl  0  0  0  0  0  0  0  0  0  0  0  0
    7.9206   -0.5894   -0.2468 C   0  0  0  0  0  0  0  0  0  0  0  0
    3.8457   -3.1382   -0.1314 C   0  0  0  0  0  0  0  0  0  0  0  0
    4.4663   -4.3723   -0.1615 N   0  0  0  0  0  0  0  0  0  0  0  0
    3.4797   -5.2436   -0.1386 C   0  0  0  0  0  0  0  0  0  0  0  0
    2.2534   -4.6313   -0.1010 N   0  0  0  0  0  0  0  0  0  0  0  0
    0.9539   -5.2869   -0.0629 C   0  0  0  0  0  0  0  0  0  0  0  0
    0.7313   -6.1759   -1.2867 C   0  0  0  0  0  0  0  0  0  0  0  0
    0.7605   -6.0686    1.2361 C   0  0  0  0  0  0  0  0  0  0  0  0
    2.4716   -3.2799   -0.0949 C   0  0  0  0  0  0  0  0  0  0  0  0
    1.5576   -2.3006   -0.0562 N   0  0  0  0  0  0  0  0  0  0  0  0
   -0.6378    1.4269   -0.5638 C   0  0  0  0  0  0  0  0  0  0  0  0
   -0.0899    1.8357   -1.9361 C   0  0  0  0  0  0  0  0  0  0  0  0
   -0.3527    2.5266    0.4646 C   0  0  0  0  0  0  0  0  0  0  0  0
    0.0847   -2.1595    0.9932 H   0  0  0  0  0  0  0  0  0  0  0  0
   -1.8478   -0.1327    1.2102 H   0  0  0  0  0  0  0  0  0  0  0  0
   -0.2889   -0.0325    2.0525 H   0  0  0  0  0  0  0  0  0  0  0  0
   -0.4131   -0.6820   -0.9408 H   0  0  0  0  0  0  0  0  0  0  0  0
    1.8490    0.8854   -0.0136 H   0  0  0  0  0  0  0  0  0  0  0  0
    6.2474   -2.4852   -0.1898 H   0  0  0  0  0  0  0  0  0  0  0  0
    4.9447    1.0267   -0.0717 H   0  0  0  0  0  0  0  0  0  0  0  0
    6.4400    2.9609   -0.0945 H   0  0  0  0  0  0  0  0  0  0  0  0
    8.3584   -1.5824   -0.3053 H   0  0  0  0  0  0  0  0  0  0  0  0
    3.5972   -6.3198   -0.1469 H   0  0  0  0  0  0  0  0  0  0  0  0
    0.1962   -4.4944   -0.0907 H   0  0  0  0  0  0  0  0  0  0  0  0
   -0.2852   -6.5836   -1.2878 H   0  0  0  0  0  0  0  0  0  0  0  0
    1.4304   -7.0190   -1.3082 H   0  0  0  0  0  0  0  0  0  0  0  0
    0.8674   -5.6066   -2.2128 H   0  0  0  0  0  0  0  0  0  0  0  0
   -0.2507   -6.4855    1.2897 H   0  0  0  0  0  0  0  0  0  0  0  0
    0.9044   -5.4198    2.1071 H   0  0  0  0  0  0  0  0  0  0  0  0
    1.4713   -6.8982    1.3184 H   0  0  0  0  0  0  0  0  0  0  0  0
   -1.7296    1.3605   -0.6686 H   0  0  0  0  0  0  0  0  0  0  0  0
    0.9931    1.9942   -1.9123 H   0  0  0  0  0  0  0  0  0  0  0  0
   -0.3064    1.0677   -2.6861 H   0  0  0  0  0  0  0  0  0  0  0  0
   -0.5547    2.7686   -2.2730 H   0  0  0  0  0  0  0  0  0  0  0  0
    0.7205    2.6811    0.6124 H   0  0  0  0  0  0  0  0  0  0  0  0
   -0.7798    3.4794    0.1324 H   0  0  0  0  0  0  0  0  0  0  0  0
   -0.8007    2.2921    1.4349 H   0  0  0  0  0  0  0  0  0  0  0  0
 31  1  1  0
  1  2  1  0
  2 32  1  0
  2 33  1  0
  2  3  1  0
  3 34  1  6
  3  4  1  0
  4 35  1  0
  4  5  1  0
  5  6  2  0
  6  7  1  0
  7  8  1  0
  8 36  1  0
  8  9  1  0
  9 10  2  0
 10 37  1  0
 10 11  1  0
 11 38  1  0
 11 12  2  0
 12 13  1  0
 13 14  2  0
 13 15  1  0
 12 16  1  0
 16 17  1  0
  9 18  1  0
 16 18  2  0
 18 39  1  0
  7 19  2  0
 19 20  1  0
 20 21  2  0
 21 40  1  0
 21 22  1  0
 22 23  1  0
 23 41  1  0
 23 24  1  0
 24 42  1  0
 24 43  1  0
 24 44  1  0
 23 25  1  0
 25 45  1  0
 25 46  1  0
 25 47  1  0
 19 26  1  0
 22 26  1  0
  5 27  1  0
 26 27  2  0
  3 28  1  0
 28 48  1  0
 28 29  1  0
 29 49  1  0
 29 50  1  0
 29 51  1  0
 28 30  1  0
 30 52  1  0
 30 53  1  0
 30 54  1  0
M  CHG  1  15  -1
M  END
>  <conformer_energy>  (1) 
-8.64

>  <ligand_smiles>  (1) 
CC(C)[C@H](CO)Nc1nc(Nc2ccc(C(=O)[O-])c(Cl)c2)c2ncn(C(C)C)c2n1

>  <ligand_conf_name>  (1) 
1V0P - prepared_ligand2_conf_0

>  <ligand_molecule_name>  (1) 
1V0P - prepared_ligand2

$$$$
