MOL_0_isomer_0_conf_0
     RDKit          3D

 57 58  0  0  0  0  0  0  0  0999 V2000
   -5.1023    0.7982    2.8711 O   0  0  0  0  0  0  0  0  0  0  0  0
   -4.8435   -0.2989    1.9889 C   0  0  0  0  0  0  0  0  0  0  0  0
   -3.4051   -0.8042    2.1690 C   0  0  2  0  0  0  0  0  0  0  0  0
   -3.3031   -1.3844    3.4819 O   0  0  0  0  0  0  0  0  0  0  0  0
   -2.3475    0.3103    2.0279 C   0  0  2  0  0  0  0  0  0  0  0  0
   -2.7790    1.3169    1.0963 O   0  0  0  0  0  0  0  0  0  0  0  0
   -0.9431   -0.2031    1.6461 C   0  0  2  0  0  0  0  0  0  0  0  0
   -0.0902    0.9520    1.7865 O   0  0  0  0  0  0  0  0  0  0  0  0
   -0.8785   -0.7513    0.2096 C   0  0  0  0  0  0  0  0  0  0  0  0
    0.2404   -1.6116    0.0487 O   0  0  0  0  0  0  0  0  0  0  0  0
    1.6392   -0.9636   -0.4840 P   0  0  2  0  0  5  0  0  0  0  0  0
    2.6372   -2.1087   -0.4213 O   0  0  0  0  0  0  0  0  0  0  0  0
    1.8612    0.2780    0.3414 O   0  0  0  0  0  1  0  0  0  0  0  0
    1.2293   -0.6910   -2.0006 O   0  0  0  0  0  0  0  0  0  0  0  0
    0.9994    0.6297   -2.8655 P   0  0  1  0  0  5  0  0  0  0  0  0
   -0.1628    1.4452   -2.3456 O   0  0  0  0  0  0  0  0  0  0  0  0
    2.3067    1.2661   -3.2659 O   0  0  0  0  0  1  0  0  0  0  0  0
    0.4352   -0.0842   -4.2319 O   0  0  0  0  0  0  0  0  0  0  0  0
   -0.8387   -0.6972   -4.1408 C   0  0  0  0  0  0  0  0  0  0  0  0
   -1.2746   -1.1964   -5.5261 C   0  0  1  0  0  0  0  0  0  0  0  0
   -0.4366   -2.2458   -6.0770 O   0  0  0  0  0  0  0  0  0  0  0  0
   -0.8528   -3.5132   -5.5008 C   0  0  1  0  0  0  0  0  0  0  0  0
    0.0943   -3.9273   -4.4656 N   0  0  0  0  0  0  0  0  0  0  0  0
    1.2683   -3.2368   -4.2547 C   0  0  0  0  0  0  0  0  0  0  0  0
    2.0460   -3.5076   -3.2141 C   0  0  0  0  0  0  0  0  0  0  0  0
    1.5309   -4.5209   -2.2796 C   0  0  0  0  0  0  0  0  0  0  0  0
    2.1257   -4.6230   -1.0587 N   0  0  0  0  0  0  0  0  0  0  0  0
    0.5239   -5.2930   -2.5570 N   0  0  0  0  0  0  0  0  0  0  0  0
   -0.1897   -5.0720   -3.7131 C   0  0  0  0  0  0  0  0  0  0  0  0
   -1.0874   -5.8425   -4.0497 O   0  0  0  0  0  0  0  0  0  0  0  0
   -2.3065   -3.2815   -5.0026 C   0  0  2  0  0  0  0  0  0  0  0  0
   -3.2542   -4.2026   -5.5643 O   0  0  0  0  0  0  0  0  0  0  0  0
   -2.6326   -1.8687   -5.4873 C   0  0  2  0  0  0  0  0  0  0  0  0
   -3.1798   -1.9704   -6.8254 O   0  0  0  0  0  0  0  0  0  0  0  0
   -4.5769    1.5371    2.4960 H   0  0  0  0  0  0  0  0  0  0  0  0
   -5.5553   -1.0897    2.2448 H   0  0  0  0  0  0  0  0  0  0  0  0
   -5.0400    0.0212    0.9605 H   0  0  0  0  0  0  0  0  0  0  0  0
   -3.2413   -1.6140    1.4547 H   0  0  0  0  0  0  0  0  0  0  0  0
   -3.7110   -0.7317    4.0834 H   0  0  0  0  0  0  0  0  0  0  0  0
   -2.2552    0.8296    2.9915 H   0  0  0  0  0  0  0  0  0  0  0  0
   -1.9462    1.7705    0.8206 H   0  0  0  0  0  0  0  0  0  0  0  0
   -0.5951   -0.9532    2.3657 H   0  0  0  0  0  0  0  0  0  0  0  0
    0.7482    0.7597    1.2729 H   0  0  0  0  0  0  0  0  0  0  0  0
   -0.8425    0.0613   -0.5149 H   0  0  0  0  0  0  0  0  0  0  0  0
   -1.7534   -1.3609   -0.0288 H   0  0  0  0  0  0  0  0  0  0  0  0
   -0.7919   -1.5056   -3.4063 H   0  0  0  0  0  0  0  0  0  0  0  0
   -1.5715    0.0370   -3.7911 H   0  0  0  0  0  0  0  0  0  0  0  0
   -1.2414   -0.3699   -6.2441 H   0  0  0  0  0  0  0  0  0  0  0  0
   -0.8238   -4.2687   -6.2942 H   0  0  0  0  0  0  0  0  0  0  0  0
    1.5366   -2.4270   -4.9259 H   0  0  0  0  0  0  0  0  0  0  0  0
    2.9382   -2.9469   -2.9715 H   0  0  0  0  0  0  0  0  0  0  0  0
    2.5391   -3.7327   -0.6987 H   0  0  0  0  0  0  0  0  0  0  0  0
    1.6508   -5.1659   -0.3566 H   0  0  0  0  0  0  0  0  0  0  0  0
   -2.3709   -3.3452   -3.9112 H   0  0  0  0  0  0  0  0  0  0  0  0
   -3.7177   -3.7032   -6.2639 H   0  0  0  0  0  0  0  0  0  0  0  0
   -3.3772   -1.3618   -4.8692 H   0  0  0  0  0  0  0  0  0  0  0  0
   -2.4105   -2.0158   -7.4273 H   0  0  0  0  0  0  0  0  0  0  0  0
 35  1  1  0
  1  2  1  0
  2 36  1  0
  2 37  1  0
  2  3  1  0
  3 38  1  6
  3  4  1  0
  4 39  1  0
  3  5  1  0
  5 40  1  1
  5  6  1  0
  6 41  1  0
  5  7  1  0
  7 42  1  1
  7  8  1  0
  8 43  1  0
  7  9  1  0
  9 44  1  0
  9 45  1  0
  9 10  1  0
 10 11  1  0
 11 12  2  0
 11 13  1  1
 11 14  1  0
 14 15  1  0
 15 16  2  0
 15 17  1  6
 15 18  1  0
 18 19  1  0
 19 46  1  0
 19 47  1  0
 19 20  1  0
 20 48  1  6
 20 21  1  0
 21 22  1  0
 22 49  1  6
 22 23  1  0
 23 24  1  0
 24 50  1  0
 24 25  2  0
 25 51  1  0
 25 26  1  0
 26 27  1  0
 27 52  1  0
 27 53  1  0
 26 28  2  0
 23 29  1  0
 28 29  1  0
 29 30  2  0
 22 31  1  0
 31 54  1  1
 31 32  1  0
 32 55  1  0
 20 33  1  0
 31 33  1  0
 33 56  1  1
 33 34  1  0
 34 57  1  0
M  CHG  2  13  -1  17  -1
M  END
>  <conformer_energy>  (1) 
-124.07

>  <ligand_smiles>  (1) 
Nc1ccn([C@@H]2O[C@H](CO[P@](=O)([O-])O[P@@](=O)([O-])OC[C@@H](O)[C@@H](O)[C@@H](O)CO)[C@@H](O)[C@H]2O)c(=O)n1

>  <ligand_conf_name>  (1) 
MOL_0_isomer_0_conf_0

>  <ligand_molecule_name>  (1) 
MOL_0_isomer_0

$$$$
