MOL_0_isomer_0_conf_0
     RDKit          3D

 82 84  0  0  0  0  0  0  0  0999 V2000
    1.7747   -3.7191  -10.1233 O   0  0  0  0  0  0  0  0  0  0  0  0
    3.1323   -4.1065   -9.9053 C   0  0  0  0  0  0  0  0  0  0  0  0
    3.8835   -3.0383   -9.1006 C   0  0  1  0  0  0  0  0  0  0  0  0
    3.1366   -2.8524   -7.8961 O   0  0  0  0  0  0  0  0  0  0  0  0
    3.6976   -1.8263   -7.0597 C   0  0  2  0  0  0  0  0  0  0  0  0
    3.8179   -0.6008   -7.7559 O   0  0  0  0  0  0  0  0  0  0  0  0
    2.8788    0.6327   -7.2386 P   0  0  1  0  0  5  0  0  0  0  0  0
    3.1294    1.7396   -8.2377 O   0  0  0  0  0  0  0  0  0  0  0  0
    1.5064    0.0278   -7.0357 O   0  0  0  0  0  1  0  0  0  0  0  0
    3.6099    0.8941   -5.8445 O   0  0  0  0  0  0  0  0  0  0  0  0
    3.3767    1.9784   -4.6899 P   0  0  2  0  0  5  0  0  0  0  0  0
    1.9757    2.5412   -4.6395 O   0  0  0  0  0  0  0  0  0  0  0  0
    4.5910    2.8767   -4.5840 O   0  0  0  0  0  1  0  0  0  0  0  0
    3.4927    0.9616   -3.4092 O   0  0  0  0  0  0  0  0  0  0  0  0
    2.5132   -0.0586   -3.3494 C   0  0  0  0  0  0  0  0  0  0  0  0
    2.6269   -0.8100   -2.0247 C   0  0  1  0  0  0  0  0  0  0  0  0
    2.0812   -0.0333   -0.9348 O   0  0  0  0  0  0  0  0  0  0  0  0
    1.1414   -0.8281   -0.1984 C   0  0  1  0  0  0  0  0  0  0  0  0
   -0.2210   -0.3018   -0.3544 N   0  0  0  0  0  0  0  0  0  0  0  0
   -0.5042    0.7437   -1.2203 C   0  0  0  0  0  0  0  0  0  0  0  0
   -1.7362    1.2510   -1.3469 C   0  0  0  0  0  0  0  0  0  0  0  0
   -2.8167    0.6885   -0.5290 C   0  0  0  0  0  0  0  0  0  0  0  0
   -3.9557    1.1435   -0.5643 O   0  0  0  0  0  0  0  0  0  0  0  0
   -2.4730   -0.3514    0.2844 N   0  0  0  0  0  0  0  0  0  0  0  0
   -1.2075   -0.8590    0.4478 C   0  0  0  0  0  0  0  0  0  0  0  0
   -1.0142   -1.7508    1.2705 O   0  0  0  0  0  0  0  0  0  0  0  0
    1.3352   -2.2841   -0.6584 C   0  0  2  0  0  0  0  0  0  0  0  0
    2.3089   -2.9513    0.1794 O   0  0  0  0  0  0  0  0  0  0  0  0
    1.8396   -2.1174   -2.0882 C   0  0  2  0  0  0  0  0  0  0  0  0
    2.6116   -3.2474   -2.4935 O   0  0  0  0  0  0  0  0  0  0  0  0
    5.0828   -2.2992   -6.5685 C   0  0  2  0  0  0  0  0  0  0  0  0
    5.6913   -1.3655   -5.6272 N   0  0  0  0  0  0  0  0  0  0  0  0
    5.5793   -1.4941   -4.2698 C   0  0  0  0  0  0  0  0  0  0  0  0
    4.9076   -2.3639   -3.7169 O   0  0  0  0  0  0  0  0  0  0  0  0
    6.4024   -0.4901   -3.5091 C   0  0  0  0  0  0  0  0  0  0  0  0
    6.0303   -2.5911   -7.7550 C   0  0  1  0  0  0  0  0  0  0  0  0
    7.1842   -3.2686   -7.1958 O   0  0  0  0  0  0  0  0  0  0  0  0
    8.3169   -3.4204   -8.0533 C   0  0  1  0  0  0  0  0  0  0  0  0
    9.6048   -2.8240   -7.4268 C   0  0  0  0  0  0  0  0  0  0  0  0
    9.6262   -2.2652   -6.3315 O   0  0  0  0  0  0  0  0  0  0  0  0
   10.7260   -2.9868   -8.2099 N   0  0  0  0  0  0  0  0  0  0  0  0
   12.1028   -2.5697   -7.8709 C   0  0  2  0  0  0  0  0  0  0  0  0
   13.0847   -2.7569   -9.0870 C   0  0  0  0  0  0  0  0  0  0  0  0
   12.5185   -3.1810  -10.1458 O   0  0  0  0  0  0  0  0  0  0  0  0
   14.3018   -2.4714   -8.8906 O   0  0  0  0  0  1  0  0  0  0  0  0
   12.6430   -3.3799   -6.7008 C   0  0  0  0  0  0  0  0  0  0  0  0
    8.5155   -4.9225   -8.2547 C   0  0  0  0  0  0  0  0  0  0  0  0
    5.3203   -3.4905   -8.7981 C   0  0  2  0  0  0  0  0  0  0  0  0
    6.0566   -3.5528  -10.0295 O   0  0  0  0  0  0  0  0  0  0  0  0
    1.5592   -3.0989   -9.3893 H   0  0  0  0  0  0  0  0  0  0  0  0
    3.1093   -5.0501   -9.3524 H   0  0  0  0  0  0  0  0  0  0  0  0
    3.5984   -4.2857  -10.8840 H   0  0  0  0  0  0  0  0  0  0  0  0
    3.8712   -2.1131   -9.6898 H   0  0  0  0  0  0  0  0  0  0  0  0
    3.0270   -1.7334   -6.2004 H   0  0  0  0  0  0  0  0  0  0  0  0
    1.5192    0.3864   -3.4599 H   0  0  0  0  0  0  0  0  0  0  0  0
    2.6648   -0.7550   -4.1767 H   0  0  0  0  0  0  0  0  0  0  0  0
    3.6812   -0.9876   -1.7842 H   0  0  0  0  0  0  0  0  0  0  0  0
    1.3974   -0.7362    0.8645 H   0  0  0  0  0  0  0  0  0  0  0  0
    0.3093    1.1768   -1.7924 H   0  0  0  0  0  0  0  0  0  0  0  0
   -1.9573    2.0740   -2.0103 H   0  0  0  0  0  0  0  0  0  0  0  0
   -3.1954   -0.7541    0.8622 H   0  0  0  0  0  0  0  0  0  0  0  0
    0.4251   -2.8958   -0.6199 H   0  0  0  0  0  0  0  0  0  0  0  0
    3.1731   -2.8368   -0.2795 H   0  0  0  0  0  0  0  0  0  0  0  0
    0.9869   -2.0221   -2.7706 H   0  0  0  0  0  0  0  0  0  0  0  0
    3.3685   -2.9317   -3.0431 H   0  0  0  0  0  0  0  0  0  0  0  0
    4.9414   -3.2525   -6.0351 H   0  0  0  0  0  0  0  0  0  0  0  0
    6.0621   -0.4939   -5.9888 H   0  0  0  0  0  0  0  0  0  0  0  0
    6.3370    0.4997   -3.9573 H   0  0  0  0  0  0  0  0  0  0  0  0
    7.4426   -0.8220   -3.4957 H   0  0  0  0  0  0  0  0  0  0  0  0
    6.0363   -0.4270   -2.4767 H   0  0  0  0  0  0  0  0  0  0  0  0
    6.3724   -1.6568   -8.2160 H   0  0  0  0  0  0  0  0  0  0  0  0
    8.1661   -2.9221   -9.0178 H   0  0  0  0  0  0  0  0  0  0  0  0
   10.6741   -3.3317   -9.1634 H   0  0  0  0  0  0  0  0  0  0  0  0
   12.0673   -1.5070   -7.6069 H   0  0  0  0  0  0  0  0  0  0  0  0
   12.6525   -4.4513   -6.9352 H   0  0  0  0  0  0  0  0  0  0  0  0
   12.0274   -3.2454   -5.8065 H   0  0  0  0  0  0  0  0  0  0  0  0
   13.6669   -3.0856   -6.4388 H   0  0  0  0  0  0  0  0  0  0  0  0
    7.5893   -5.4167   -8.5727 H   0  0  0  0  0  0  0  0  0  0  0  0
    8.8088   -5.3983   -7.3143 H   0  0  0  0  0  0  0  0  0  0  0  0
    9.2935   -5.1330   -8.9983 H   0  0  0  0  0  0  0  0  0  0  0  0
    5.2986   -4.5115   -8.3946 H   0  0  0  0  0  0  0  0  0  0  0  0
    6.1912   -2.6347  -10.3314 H   0  0  0  0  0  0  0  0  0  0  0  0
 50  1  1  0
  1  2  1  0
  2 51  1  0
  2 52  1  0
  2  3  1  0
  3 53  1  6
  3  4  1  0
  4  5  1  0
  5 54  1  1
  5  6  1  0
  6  7  1  0
  7  8  2  0
  7  9  1  1
  7 10  1  0
 10 11  1  0
 11 12  2  0
 11 13  1  1
 11 14  1  0
 14 15  1  0
 15 55  1  0
 15 56  1  0
 15 16  1  0
 16 57  1  1
 16 17  1  0
 17 18  1  0
 18 58  1  1
 18 19  1  0
 19 20  1  0
 20 59  1  0
 20 21  2  0
 21 60  1  0
 21 22  1  0
 22 23  2  0
 22 24  1  0
 24 61  1  0
 19 25  1  0
 24 25  1  0
 25 26  2  0
 18 27  1  0
 27 62  1  6
 27 28  1  0
 28 63  1  0
 16 29  1  0
 27 29  1  0
 29 64  1  6
 29 30  1  0
 30 65  1  0
  5 31  1  0
 31 66  1  1
 31 32  1  0
 32 67  1  0
 32 33  1  0
 33 34  2  0
 33 35  1  0
 35 68  1  0
 35 69  1  0
 35 70  1  0
 31 36  1  0
 36 71  1  6
 36 37  1  0
 37 38  1  0
 38 72  1  6
 38 39  1  0
 39 40  2  0
 39 41  1  0
 41 73  1  0
 41 42  1  0
 42 74  1  1
 42 43  1  0
 43 44  2  0
 43 45  1  0
 42 46  1  0
 46 75  1  0
 46 76  1  0
 46 77  1  0
 38 47  1  0
 47 78  1  0
 47 79  1  0
 47 80  1  0
  3 48  1  0
 36 48  1  0
 48 81  1  1
 48 49  1  0
 49 82  1  0
M  CHG  3   9  -1  13  -1  45  -1
M  END
>  <conformer_energy>  (1) 
-15.41

>  <ligand_smiles>  (1) 
CC(=O)N[C@H]1[C@@H](O[P@@](=O)([O-])O[P@](=O)([O-])OC[C@H]2O[C@@H](n3ccc(=O)[nH]c3=O)[C@H](O)[C@@H]2O)O[C@H](CO)[C@@H](O)[C@@H]1O[C@H](C)C(=O)N[C@@H](C)C(=O)[O-]

>  <ligand_conf_name>  (1) 
MOL_0_isomer_0_conf_0

>  <ligand_molecule_name>  (1) 
MOL_0_isomer_0

$$$$
