MOL_0_isomer_0_conf_0
     RDKit          3D

 30 29  0  0  0  0  0  0  0  0999 V2000
    3.9735   -0.6852   -0.7754 O   0  0  0  0  0  0  0  0  0  0  0  0
    3.3803    0.4412   -1.4668 C   0  0  1  0  0  0  0  0  0  0  0  0
    3.9419    0.4046   -2.9342 C   0  0  1  0  0  0  0  0  0  0  0  0
    3.8315   -0.9829   -3.4030 O   0  0  0  0  0  0  0  0  0  0  0  0
    3.1654    1.3577   -3.8988 C   0  0  0  0  0  0  0  0  0  0  0  0
    2.8010    2.4759   -3.4122 O   0  0  0  0  0  0  0  0  0  0  0  0
    2.8737    0.8888   -5.0446 O   0  0  0  0  0  1  0  0  0  0  0  0
    5.4502    0.8116   -2.9789 C   0  0  0  0  0  0  0  0  0  0  0  0
    6.1044    0.4204   -4.1945 O   0  0  0  0  0  0  0  0  0  0  0  0
    7.7441    0.5899   -4.2701 P   0  0  0  0  0  5  0  0  0  0  0  0
    8.1094    0.1972   -5.7009 O   0  0  0  0  0  0  0  0  0  0  0  0
    8.3018   -0.3737   -3.2281 O   0  0  0  0  0  1  0  0  0  0  0  0
    8.0215    2.0566   -3.9562 O   0  0  0  0  0  1  0  0  0  0  0  0
    1.8082    0.4013   -1.3053 C   0  0  2  0  0  0  0  0  0  0  0  0
    1.2832    1.7481   -1.4399 O   0  0  0  0  0  0  0  0  0  0  0  0
    1.3154   -0.1743    0.0659 C   0  0  0  0  0  0  0  0  0  0  0  0
   -0.1134   -0.3190    0.1084 O   0  0  0  0  0  0  0  0  0  0  0  0
   -0.7879   -0.9764    1.4594 P   0  0  0  0  0  5  0  0  0  0  0  0
   -2.2949   -0.9167    1.2071 O   0  0  0  0  0  0  0  0  0  0  0  0
   -0.3404   -0.0954    2.6219 O   0  0  0  0  0  1  0  0  0  0  0  0
   -0.2536   -2.4035    1.5277 O   0  0  0  0  0  1  0  0  0  0  0  0
    4.0580   -1.3565   -1.4878 H   0  0  0  0  0  0  0  0  0  0  0  0
    3.7441    1.3491   -0.9697 H   0  0  0  0  0  0  0  0  0  0  0  0
    4.0912   -0.8654   -4.3464 H   0  0  0  0  0  0  0  0  0  0  0  0
    5.5595    1.8941   -2.8517 H   0  0  0  0  0  0  0  0  0  0  0  0
    5.9791    0.3175   -2.1570 H   0  0  0  0  0  0  0  0  0  0  0  0
    1.3619   -0.1969   -2.1078 H   0  0  0  0  0  0  0  0  0  0  0  0
    1.7402    2.1562   -2.2155 H   0  0  0  0  0  0  0  0  0  0  0  0
    1.7558   -1.1598    0.2415 H   0  0  0  0  0  0  0  0  0  0  0  0
    1.6110    0.5051    0.8720 H   0  0  0  0  0  0  0  0  0  0  0  0
 22  1  1  0
  1  2  1  0
  2 23  1  1
  2  3  1  0
  3  4  1  6
  4 24  1  0
  3  5  1  0
  5  6  2  0
  5  7  1  0
  3  8  1  0
  8 25  1  0
  8 26  1  0
  8  9  1  0
  9 10  1  0
 10 11  2  0
 10 12  1  0
 10 13  1  0
  2 14  1  0
 14 27  1  6
 14 15  1  0
 15 28  1  0
 14 16  1  0
 16 29  1  0
 16 30  1  0
 16 17  1  0
 17 18  1  0
 18 19  2  0
 18 20  1  0
 18 21  1  0
M  CHG  5   7  -1  12  -1  13  -1  20  -1  21  -1
M  END
>  <conformer_energy>  (1) 
300.60

>  <ligand_smiles>  (1) 
O=C([O-])[C@@](O)(COP(=O)([O-])[O-])[C@H](O)[C@H](O)COP(=O)([O-])[O-]

>  <ligand_conf_name>  (1) 
MOL_0_isomer_0_conf_0

>  <ligand_molecule_name>  (1) 
MOL_0_isomer_0

$$$$
