MOL_0_isomer_0_conf_0
     RDKit          3D

 33 34  0  0  0  0  0  0  0  0999 V2000
    7.3656   -4.5677   -0.6085 O   0  0  0  0  0  0  0  0  0  0  0  0
    5.9620   -4.7752   -0.5553 C   0  0  0  0  0  0  0  0  0  0  0  0
    5.2180   -3.5175   -1.0323 C   0  0  1  0  0  0  0  0  0  0  0  0
    3.7982   -3.6459   -0.8761 O   0  0  0  0  0  0  0  0  0  0  0  0
    3.3169   -3.5596    0.4654 C   0  0  2  0  0  0  0  0  0  0  0  0
    1.5163   -3.2366    0.3927 S   0  0  0  0  0  0  0  0  0  0  0  0
    1.8028   -1.5302    0.3085 C   0  0  0  0  0  0  0  0  0  0  0  0
    0.9443   -0.6444   -0.1490 N   0  0  0  0  0  0  0  0  0  0  0  0
   -0.3981   -0.9339   -0.6820 C   0  0  0  0  0  0  0  0  0  0  0  0
   -1.4106   -0.8400    0.4405 C   0  0  0  0  0  0  0  0  0  0  0  0
    2.9918   -1.1783    0.7562 N   0  0  0  0  0  4  0  0  0  0  0  0
    3.8112   -2.3205    1.2375 C   0  0  2  0  0  0  0  0  0  0  0  0
    5.3092   -2.0658    1.0513 C   0  0  1  0  0  0  0  0  0  0  0  0
    6.0317   -2.9763    1.8809 O   0  0  0  0  0  0  0  0  0  0  0  0
    5.7201   -2.1955   -0.4168 C   0  0  2  0  0  0  0  0  0  0  0  0
    5.1427   -1.0788   -1.1195 O   0  0  0  0  0  0  0  0  0  0  0  0
    7.7914   -5.4346   -0.4660 H   0  0  0  0  0  0  0  0  0  0  0  0
    5.6998   -5.6203   -1.2019 H   0  0  0  0  0  0  0  0  0  0  0  0
    5.6871   -5.0619    0.4631 H   0  0  0  0  0  0  0  0  0  0  0  0
    5.3830   -3.4423   -2.1149 H   0  0  0  0  0  0  0  0  0  0  0  0
    3.5173   -4.4939    0.9976 H   0  0  0  0  0  0  0  0  0  0  0  0
    1.2330    0.3246   -0.1425 H   0  0  0  0  0  0  0  0  0  0  0  0
   -0.4221   -1.9134   -1.1678 H   0  0  0  0  0  0  0  0  0  0  0  0
   -0.6173   -0.1840   -1.4492 H   0  0  0  0  0  0  0  0  0  0  0  0
   -2.4212   -1.0160    0.0602 H   0  0  0  0  0  0  0  0  0  0  0  0
   -1.3847    0.1513    0.9047 H   0  0  0  0  0  0  0  0  0  0  0  0
   -1.2041   -1.5771    1.2225 H   0  0  0  0  0  0  0  0  0  0  0  0
    3.3281   -0.2297    0.6661 H   0  0  0  0  0  0  0  0  0  0  0  0
    3.5919   -2.4399    2.3075 H   0  0  0  0  0  0  0  0  0  0  0  0
    5.5379   -1.0543    1.4085 H   0  0  0  0  0  0  0  0  0  0  0  0
    6.9890   -2.8201    1.7513 H   0  0  0  0  0  0  0  0  0  0  0  0
    6.8078   -2.1108   -0.5136 H   0  0  0  0  0  0  0  0  0  0  0  0
    5.4863   -1.1134   -2.0345 H   0  0  0  0  0  0  0  0  0  0  0  0
 17  1  1  0
  1  2  1  0
  2 18  1  0
  2 19  1  0
  2  3  1  0
  3 20  1  6
  3  4  1  0
  4  5  1  0
  5 21  1  1
  5  6  1  0
  6  7  1  0
  7  8  1  0
  8 22  1  0
  8  9  1  0
  9 23  1  0
  9 24  1  0
  9 10  1  0
 10 25  1  0
 10 26  1  0
 10 27  1  0
  7 11  2  0
 11 28  1  0
  5 12  1  0
 11 12  1  0
 12 29  1  1
 12 13  1  0
 13 30  1  1
 13 14  1  0
 14 31  1  0
  3 15  1  0
 13 15  1  0
 15 32  1  1
 15 16  1  0
 16 33  1  0
M  CHG  1  11   1
M  END
>  <conformer_energy>  (1) 
29.47

>  <ligand_smiles>  (1) 
CCNC1=[NH+][C@@H]2[C@@H](O)[C@H](O)[C@@H](CO)O[C@@H]2S1

>  <ligand_conf_name>  (1) 
MOL_0_isomer_0_conf_0

>  <ligand_molecule_name>  (1) 
MOL_0_isomer_0

$$$$
