MOL_0_isomer_0_conf_0
     RDKit          3D

 37 40  0  0  0  0  0  0  0  0999 V2000
    4.6771   -0.0713   -1.4843 C   0  0  0  0  0  0  0  0  0  0  0  0
    4.5484   -0.0886   -2.8426 N   0  0  0  0  0  0  0  0  0  0  0  0
    3.2860   -0.0339   -3.2917 C   0  0  0  0  0  0  0  0  0  0  0  0
    2.1500    0.0261   -2.5127 C   0  0  0  0  0  0  0  0  0  0  0  0
    1.0194    0.0917   -3.3613 C   0  0  0  0  0  0  0  0  0  0  0  0
    1.5129    0.0553   -4.6550 C   0  0  0  0  0  0  0  0  0  0  0  0
    2.8883   -0.0230   -4.5979 N   0  0  0  0  0  0  0  0  0  0  0  0
    2.2903    0.0295   -1.1539 C   0  0  0  0  0  0  0  0  0  0  0  0
    3.5699   -0.0110   -0.6196 C   0  0  0  0  0  0  0  0  0  0  0  0
    3.5026    0.0213    0.7433 N   0  0  0  0  0  0  0  0  0  0  0  0
    2.2216    0.0794    1.0423 C   0  0  0  0  0  0  0  0  0  0  0  0
    1.7100    0.1444    2.4389 C   0  0  0  0  0  0  0  0  0  0  0  0
    1.4298    0.0643   -0.1100 N   0  0  0  0  0  0  0  0  0  0  0  0
   -0.0269    0.0418   -0.0718 C   0  0  0  0  0  0  0  0  0  0  0  0
   -0.6393   -1.2629   -0.5903 C   0  0  0  0  0  0  0  0  0  0  0  0
   -2.1431   -1.3259   -0.3463 C   0  0  0  0  0  0  0  0  0  0  0  0
   -2.7720    0.0323   -0.3570 N   0  0  0  0  0  4  0  0  0  0  0  0
   -2.0787    1.0520   -1.1925 C   0  0  0  0  0  0  0  0  0  0  0  0
   -0.6878    1.3111   -0.6330 C   0  0  0  0  0  0  0  0  0  0  0  0
    5.6902   -0.1059   -1.0991 H   0  0  0  0  0  0  0  0  0  0  0  0
   -0.0260    0.1630   -3.1304 H   0  0  0  0  0  0  0  0  0  0  0  0
    1.0142    0.0827   -5.6154 H   0  0  0  0  0  0  0  0  0  0  0  0
    3.5267   -0.0584   -5.3809 H   0  0  0  0  0  0  0  0  0  0  0  0
    2.5431    0.1873    3.1481 H   0  0  0  0  0  0  0  0  0  0  0  0
    1.1153   -0.7429    2.6762 H   0  0  0  0  0  0  0  0  0  0  0  0
    1.0991    1.0397    2.5887 H   0  0  0  0  0  0  0  0  0  0  0  0
   -0.2915    0.0482    0.9933 H   0  0  0  0  0  0  0  0  0  0  0  0
   -0.1632   -2.1275   -0.1103 H   0  0  0  0  0  0  0  0  0  0  0  0
   -0.4539   -1.3916   -1.6592 H   0  0  0  0  0  0  0  0  0  0  0  0
   -2.6406   -1.9218   -1.1184 H   0  0  0  0  0  0  0  0  0  0  0  0
   -2.3721   -1.7586    0.6327 H   0  0  0  0  0  0  0  0  0  0  0  0
   -3.7441   -0.0633   -0.6899 H   0  0  0  0  0  0  0  0  0  0  0  0
   -2.8691    0.3845    0.6075 H   0  0  0  0  0  0  0  0  0  0  0  0
   -2.0564    0.6652   -2.2155 H   0  0  0  0  0  0  0  0  0  0  0  0
   -2.6911    1.9587   -1.1738 H   0  0  0  0  0  0  0  0  0  0  0  0
   -0.7599    2.0468    0.1800 H   0  0  0  0  0  0  0  0  0  0  0  0
   -0.0770    1.8014   -1.3978 H   0  0  0  0  0  0  0  0  0  0  0  0
 20  1  1  0
  1  2  2  0
  2  3  1  0
  3  4  2  0
  4  5  1  0
  5 21  1  0
  5  6  2  0
  6 22  1  0
  3  7  1  0
  6  7  1  0
  7 23  1  0
  4  8  1  0
  1  9  1  0
  8  9  2  0
  9 10  1  0
 10 11  2  0
 11 12  1  0
 12 24  1  0
 12 25  1  0
 12 26  1  0
  8 13  1  0
 11 13  1  0
 13 14  1  0
 14 27  1  0
 14 15  1  0
 15 28  1  0
 15 29  1  0
 15 16  1  0
 16 30  1  0
 16 31  1  0
 16 17  1  0
 17 32  1  0
 17 33  1  0
 17 18  1  0
 18 34  1  0
 18 35  1  0
 14 19  1  0
 18 19  1  0
 19 36  1  0
 19 37  1  0
M  CHG  1  17   1
M  END
>  <conformer_energy>  (1) 
61.82

>  <ligand_smiles>  (1) 
Cc1nc2cnc3[nH]ccc3c2n1C1CC[NH2+]CC1

>  <ligand_conf_name>  (1) 
MOL_0_isomer_0_conf_0

>  <ligand_molecule_name>  (1) 
MOL_0_isomer_0

$$$$
