MOL_0_isomer_0_conf_0
     RDKit          3D

 29 30  0  0  0  0  0  0  0  0999 V2000
    4.4123    1.2298   -1.9767 O   0  0  0  0  0  0  0  0  0  0  0  0
    3.6450    0.6838   -0.9885 C   0  0  0  0  0  0  0  0  0  0  0  0
    4.2373    0.4345    0.2402 C   0  0  0  0  0  0  0  0  0  0  0  0
    3.4798   -0.1375    1.2626 C   0  0  0  0  0  0  0  0  0  0  0  0
    2.1234   -0.4547    1.0533 C   0  0  0  0  0  0  0  0  0  0  0  0
    1.4376   -1.1287    2.1048 N   0  0  0  0  0  0  0  0  0  0  0  0
    0.9064   -2.4154    2.0433 C   0  0  0  0  0  0  0  0  0  0  0  0
    0.8408   -3.2385    0.8029 C   0  0  0  0  0  0  0  0  0  0  0  0
    0.4917   -2.7700    3.3136 C   0  0  0  0  0  0  0  0  0  0  0  0
    0.7935   -1.7053    4.1821 C   0  0  0  0  0  0  0  0  0  0  0  0
    1.3742   -0.7021    3.4312 C   0  0  0  0  0  0  0  0  0  0  0  0
    1.7801    0.6610    3.8723 C   0  0  0  0  0  0  0  0  0  0  0  0
    1.5123   -0.1748   -0.1827 C   0  0  0  0  0  0  0  0  0  0  0  0
    0.0453   -0.3632   -0.4599 C   0  0  0  0  0  0  0  0  0  0  0  0
   -0.7722    0.0195    0.4297 O   0  0  0  0  0  0  0  0  0  0  0  0
   -0.2501   -0.8496   -1.5973 O   0  0  0  0  0  1  0  0  0  0  0  0
    2.3025    0.3875   -1.2055 C   0  0  0  0  0  0  0  0  0  0  0  0
    3.8423    1.3079   -2.7608 H   0  0  0  0  0  0  0  0  0  0  0  0
    5.2853    0.6657    0.3971 H   0  0  0  0  0  0  0  0  0  0  0  0
    3.9645   -0.3768    2.2050 H   0  0  0  0  0  0  0  0  0  0  0  0
    0.8570   -4.3042    1.0578 H   0  0  0  0  0  0  0  0  0  0  0  0
    1.6904   -3.0596    0.1381 H   0  0  0  0  0  0  0  0  0  0  0  0
   -0.0899   -3.0480    0.2617 H   0  0  0  0  0  0  0  0  0  0  0  0
    0.0186   -3.7067    3.5751 H   0  0  0  0  0  0  0  0  0  0  0  0
    0.5812   -1.6545    5.2411 H   0  0  0  0  0  0  0  0  0  0  0  0
    1.2624    0.9326    4.7988 H   0  0  0  0  0  0  0  0  0  0  0  0
    1.5271    1.4206    3.1260 H   0  0  0  0  0  0  0  0  0  0  0  0
    2.8551    0.7001    4.0713 H   0  0  0  0  0  0  0  0  0  0  0  0
    1.8259    0.5963   -2.1612 H   0  0  0  0  0  0  0  0  0  0  0  0
 18  1  1  0
  1  2  1  0
  2  3  2  0
  3 19  1  0
  3  4  1  0
  4 20  1  0
  4  5  2  0
  5  6  1  0
  6  7  1  0
  7  8  1  0
  8 21  1  0
  8 22  1  0
  8 23  1  0
  7  9  2  0
  9 24  1  0
  9 10  1  0
 10 25  1  0
  6 11  1  0
 10 11  2  0
 11 12  1  0
 12 26  1  0
 12 27  1  0
 12 28  1  0
  5 13  1  0
 13 14  1  0
 14 15  2  0
 14 16  1  0
  2 17  1  0
 13 17  2  0
 17 29  1  0
M  CHG  1  16  -1
M  END
>  <conformer_energy>  (1) 
50.75

>  <ligand_smiles>  (1) 
Cc1ccc(C)n1-c1ccc(O)cc1C(=O)[O-]

>  <ligand_conf_name>  (1) 
MOL_0_isomer_0_conf_0

>  <ligand_molecule_name>  (1) 
MOL_0_isomer_0

$$$$
