1MMV - prepared_ligand4_conf_0
     RDKit          3D

 36 35  0  0  0  0  0  0  0  0999 V2000
    1.8312   -0.3164   -0.4785 N   0  0  0  0  0  0  0  0  0  0  0  0
    2.1537    0.5767   -1.4285 C   0  0  0  0  0  0  0  0  0  0  0  0
    3.4234    0.9744   -1.5031 N   0  0  0  0  0  0  0  0  0  0  0  0
    4.1225    1.6877   -2.5587 C   0  0  0  0  0  0  0  0  0  0  0  0
    5.6393    1.4740   -2.4230 C   0  0  0  0  0  0  0  0  0  0  0  0
    6.1064    0.0199   -2.6608 C   0  0  0  0  0  0  0  0  0  0  0  0
    6.6193   -0.7092   -1.4090 C   0  0  1  0  0  0  0  0  0  0  0  0
    5.5047   -1.3275   -0.4951 C   0  0  0  0  0  0  0  0  0  0  0  0
    4.5647   -0.5846   -0.1094 O   0  0  0  0  0  0  0  0  0  0  0  0
    5.7191   -2.5652   -0.3212 O   0  0  0  0  0  0  0  0  0  0  0  0
    7.5260   -1.8530   -1.8647 N   0  0  0  0  0  0  0  0  0  0  0  0
    1.2380    1.0491   -2.2847 N   0  0  0  0  0  0  0  0  0  0  0  0
    0.4974   -0.8574   -0.2173 C   0  0  0  0  0  0  0  0  0  0  0  0
    0.5449   -1.8902    0.9037 C   0  0  0  0  0  0  0  0  0  0  0  0
   -0.8302   -2.4661    1.1948 C   0  0  0  0  0  0  0  0  0  0  0  0
    2.6438   -0.6727    0.0489 H   0  0  0  0  0  0  0  0  0  0  0  0
    3.9845    0.5541   -0.7422 H   0  0  0  0  0  0  0  0  0  0  0  0
    3.8943    2.7533   -2.4593 H   0  0  0  0  0  0  0  0  0  0  0  0
    3.7775    1.3264   -3.5327 H   0  0  0  0  0  0  0  0  0  0  0  0
    5.9754    1.8279   -1.4413 H   0  0  0  0  0  0  0  0  0  0  0  0
    6.1252    2.1142   -3.1701 H   0  0  0  0  0  0  0  0  0  0  0  0
    6.9252    0.0674   -3.3916 H   0  0  0  0  0  0  0  0  0  0  0  0
    5.3068   -0.5639   -3.1334 H   0  0  0  0  0  0  0  0  0  0  0  0
    7.2604   -0.0660   -0.7973 H   0  0  0  0  0  0  0  0  0  0  0  0
    7.1989   -2.6341   -1.2361 H   0  0  0  0  0  0  0  0  0  0  0  0
    7.3405   -2.1962   -2.8098 H   0  0  0  0  0  0  0  0  0  0  0  0
    8.5213   -1.7119   -1.6816 H   0  0  0  0  0  0  0  0  0  0  0  0
    1.4840    1.7542   -2.9629 H   0  0  0  0  0  0  0  0  0  0  0  0
    0.2757    0.7498   -2.2298 H   0  0  0  0  0  0  0  0  0  0  0  0
    0.1276   -1.3242   -1.1362 H   0  0  0  0  0  0  0  0  0  0  0  0
   -0.1582   -0.0281    0.0681 H   0  0  0  0  0  0  0  0  0  0  0  0
    0.9496   -1.4293    1.8124 H   0  0  0  0  0  0  0  0  0  0  0  0
    1.2314   -2.6999    0.6298 H   0  0  0  0  0  0  0  0  0  0  0  0
   -1.2425   -2.9628    0.3107 H   0  0  0  0  0  0  0  0  0  0  0  0
   -1.5270   -1.6805    1.5040 H   0  0  0  0  0  0  0  0  0  0  0  0
   -0.7697   -3.2033    2.0014 H   0  0  0  0  0  0  0  0  0  0  0  0
 16  1  1  0
  1  2  1  0
  2  3  1  0
  3 17  1  0
  3  4  1  0
  4 18  1  0
  4 19  1  0
  4  5  1  0
  5 20  1  0
  5 21  1  0
  5  6  1  0
  6 22  1  0
  6 23  1  0
  6  7  1  0
  7 24  1  1
  7  8  1  0
  8  9  2  0
  8 10  1  0
  7 11  1  0
 11 25  1  0
 11 26  1  0
 11 27  1  0
  2 12  2  0
 12 28  1  0
 12 29  1  0
  1 13  1  0
 13 30  1  0
 13 31  1  0
 13 14  1  0
 14 32  1  0
 14 33  1  0
 14 15  1  0
 15 34  1  0
 15 35  1  0
 15 36  1  0
M  CHG  3  10  -1  11   1  12   1
M  END
>  <conformer_energy>  (1) 
-208.12

>  <ligand_smiles>  (1) 
CCCNC(=[NH2+])NCCC[C@H]([NH3+])C(=O)[O-]

>  <ligand_conf_name>  (1) 
1MMV - prepared_ligand4_conf_0

>  <ligand_molecule_name>  (1) 
1MMV - prepared_ligand4

>  <fragInfo>  (1) 
14 15 32 33 34 35 36
1 16
2 12 28 29
3 17
4 18 19
5 20 21
6 22 23
7 11 24 25 26 27
8 9 10
13 30 31


>  <torsionInfo>  (1) 
13 14 9 0
1 2 1 2
1 13 1 9
2 3 2 3
3 4 3 4
4 5 4 5
5 6 5 6
6 7 6 7
7 8 7 8


>  <atomInfo>  (1) 
1  -0.278235 N 
2  0.340583  C 
3  -0.278220 N 
4  0.064083  C 
5  -0.016253 C 
6  0.007951  C 
7  0.124587  C 
8  0.099057  C 
9  -0.543897 OA
10 -0.543897 OA
11 -0.350371 N 
12 -0.290897 N 
13 0.063574  C 
14 -0.025157 C 
15 -0.062366 C 
16 0.259573  HD
17 0.259573  HD
18 0.066418  H 
19 0.066418  H 
20 0.030146  H 
21 0.030146  H 
22 0.033320  H 
23 0.033320  H 
24 0.102811  H 
25 0.344563  HD
26 0.344563  HD
27 0.344563  HD
28 0.256275  HD
29 0.256275  HD
30 0.066403  H 
31 0.066403  H 
32 0.029613  H 
33 0.029613  H 
34 0.023153  H 
35 0.023153  H 
36 0.023153  H 


$$$$
