MOL_0_isomer_0_conf_0
     RDKit          3D

 41 43  0  0  0  0  0  0  0  0999 V2000
   11.6761   -3.3470   -1.0955 O   0  0  0  0  0  0  0  0  0  0  0  0
   12.0982   -2.1777   -1.7942 C   0  0  0  0  0  0  0  0  0  0  0  0
   11.0961   -1.7015   -2.8593 C   0  0  1  0  0  0  0  0  0  0  0  0
   10.9926   -2.7365   -3.8606 O   0  0  0  0  0  0  0  0  0  0  0  0
    9.8942   -2.6827   -4.6715 C   0  0  0  0  0  0  0  0  0  0  0  0
    8.8519   -1.8598   -4.5191 C   0  0  0  0  0  0  0  0  0  0  0  0
    8.7696   -0.9045   -3.3749 C   0  0  1  0  0  0  0  0  0  0  0  0
    7.4248   -0.9239   -2.8896 O   0  0  0  0  0  0  0  0  0  0  0  0
    7.0274    0.3393   -2.3518 C   0  0  0  0  0  0  0  0  0  0  0  0
    5.7445    0.1452   -1.6236 C   0  0  0  0  0  0  0  0  0  0  0  0
    5.5332    0.4792   -0.3635 N   0  0  0  0  0  0  0  0  0  0  0  0
    4.2185    0.1629   -0.1095 C   0  0  0  0  0  0  0  0  0  0  0  0
    3.4732    0.3129    1.0681 C   0  0  0  0  0  0  0  0  0  0  0  0
    2.1264   -0.0819    1.0697 C   0  0  0  0  0  0  0  0  0  0  0  0
    1.5129   -0.6237   -0.0735 C   0  0  0  0  0  0  0  0  0  0  0  0
    0.0502   -1.0355   -0.0488 C   0  0  0  0  0  0  0  0  0  0  0  0
   -0.5806   -0.8752    1.0431 O   0  0  0  0  0  0  0  0  0  0  0  0
   -0.4347   -1.5071   -1.1265 O   0  0  0  0  0  1  0  0  0  0  0  0
    2.2695   -0.7794   -1.2515 C   0  0  0  0  0  0  0  0  0  0  0  0
    3.6106   -0.3743   -1.2379 C   0  0  0  0  0  0  0  0  0  0  0  0
    4.6011   -0.3775   -2.1888 N   0  0  0  0  0  0  0  0  0  0  0  0
    4.4554   -0.8591   -3.5408 C   0  0  0  0  0  0  0  0  0  0  0  0
    9.7364   -1.3182   -2.2473 C   0  0  1  0  0  0  0  0  0  0  0  0
    9.1950   -2.4136   -1.4825 O   0  0  0  0  0  0  0  0  0  0  0  0
   10.6931   -3.3234   -1.0729 H   0  0  0  0  0  0  0  0  0  0  0  0
   12.2700   -1.3893   -1.0544 H   0  0  0  0  0  0  0  0  0  0  0  0
   13.0567   -2.4200   -2.2645 H   0  0  0  0  0  0  0  0  0  0  0  0
   11.5244   -0.8204   -3.3557 H   0  0  0  0  0  0  0  0  0  0  0  0
    9.9631   -3.4210   -5.4610 H   0  0  0  0  0  0  0  0  0  0  0  0
    8.0281   -1.8925   -5.2244 H   0  0  0  0  0  0  0  0  0  0  0  0
    9.0263    0.0912   -3.7605 H   0  0  0  0  0  0  0  0  0  0  0  0
    7.7874    0.7137   -1.6570 H   0  0  0  0  0  0  0  0  0  0  0  0
    6.9026    1.0631   -3.1644 H   0  0  0  0  0  0  0  0  0  0  0  0
    3.9295    0.7287    1.9577 H   0  0  0  0  0  0  0  0  0  0  0  0
    1.5357    0.0332    1.9780 H   0  0  0  0  0  0  0  0  0  0  0  0
    1.8026   -1.2014   -2.1374 H   0  0  0  0  0  0  0  0  0  0  0  0
    5.0611   -0.2471   -4.2133 H   0  0  0  0  0  0  0  0  0  0  0  0
    3.4107   -0.7836   -3.8509 H   0  0  0  0  0  0  0  0  0  0  0  0
    4.7834   -1.9010   -3.5695 H   0  0  0  0  0  0  0  0  0  0  0  0
    9.8577   -0.4899   -1.5406 H   0  0  0  0  0  0  0  0  0  0  0  0
    8.2196   -2.3142   -1.5260 H   0  0  0  0  0  0  0  0  0  0  0  0
 25  1  1  0
  1  2  1  0
  2 26  1  0
  2 27  1  0
  2  3  1  0
  3 28  1  6
  3  4  1  0
  4  5  1  0
  5 29  1  0
  5  6  2  0
  6 30  1  0
  6  7  1  0
  7 31  1  6
  7  8  1  0
  8  9  1  0
  9 32  1  0
  9 33  1  0
  9 10  1  0
 10 11  2  0
 11 12  1  0
 12 13  2  0
 13 34  1  0
 13 14  1  0
 14 35  1  0
 14 15  2  0
 15 16  1  0
 16 17  2  0
 16 18  1  0
 15 19  1  0
 19 36  1  0
 12 20  1  0
 19 20  2  0
 10 21  1  0
 20 21  1  0
 21 22  1  0
 22 37  1  0
 22 38  1  0
 22 39  1  0
  3 23  1  0
  7 23  1  0
 23 40  1  1
 23 24  1  0
 24 41  1  0
M  CHG  1  18  -1
M  END
>  <conformer_energy>  (1) 
94.93

>  <ligand_smiles>  (1) 
Cn1c(CO[C@@H]2C=CO[C@H](CO)[C@@H]2O)nc2ccc(C(=O)[O-])cc21

>  <ligand_conf_name>  (1) 
MOL_0_isomer_0_conf_0

>  <ligand_molecule_name>  (1) 
MOL_0_isomer_0

$$$$
