MOL_0_isomer_0_conf_0
     RDKit          3D

 67 70  0  0  0  0  0  0  0  0999 V2000
    2.2782   -0.3164    4.6445 C   0  0  0  0  0  0  0  0  0  0  0  0
    1.8148   -1.2459    5.5788 C   0  0  0  0  0  0  0  0  0  0  0  0
    2.6953   -1.8453    6.4861 C   0  0  0  0  0  0  0  0  0  0  0  0
    2.3177   -2.7490    7.4413 O   0  0  0  0  0  0  0  0  0  0  0  0
    1.0455   -3.3614    7.3001 C   0  0  0  0  0  0  0  0  0  0  0  0
    4.0525   -1.4858    6.4622 C   0  0  0  0  0  0  0  0  0  0  0  0
    5.0417   -2.1162    7.3944 C   0  0  0  0  0  0  0  0  0  0  0  0
    5.4375   -3.2826    7.0897 O   0  0  0  0  0  0  0  0  0  0  0  0
    5.5536   -1.3498    8.2646 O   0  0  0  0  0  1  0  0  0  0  0  0
    4.5244   -0.5356    5.5226 C   0  0  0  0  0  0  0  0  0  0  0  0
    5.9806   -0.1421    5.4930 C   0  0  0  0  0  0  0  0  0  0  0  0
    6.8011   -0.8661    4.4553 N   0  0  2  0  0  4  0  0  0  0  0  0
    6.9035   -2.3447    4.7197 C   0  0  0  0  0  0  0  0  0  0  0  0
    8.1600   -0.2693    4.2541 C   0  0  0  0  0  0  0  0  0  0  0  0
    8.1902    1.1927    3.8466 C   0  0  0  0  0  0  0  0  0  0  0  0
    7.6632    1.6937    2.6287 C   0  0  0  0  0  0  0  0  0  0  0  0
    6.9590    0.7788    1.6610 C   0  0  0  0  0  0  0  0  0  0  0  0
    6.8581   -0.4157    1.9246 O   0  0  0  0  0  0  0  0  0  0  0  0
    6.3859    1.3112    0.5282 N   0  0  0  0  0  0  0  0  0  0  0  0
    5.6866    0.4791   -0.4307 C   0  0  0  0  0  0  0  0  0  0  0  0
    4.2315    0.3291   -0.0741 C   0  0  0  0  0  0  0  0  0  0  0  0
    3.2984    1.3056   -0.4419 C   0  0  0  0  0  0  0  0  0  0  0  0
    1.9490    1.1492   -0.1144 C   0  0  0  0  0  0  0  0  0  0  0  0
    1.5087    0.0247    0.5872 C   0  0  0  0  0  0  0  0  0  0  0  0
    0.1623   -0.0110    0.8239 O   0  0  0  0  0  0  0  0  0  0  0  0
   -0.3481   -1.1738    1.4651 C   0  0  0  0  0  0  0  0  0  0  0  0
    2.4368   -0.9392    0.9771 C   0  0  0  0  0  0  0  0  0  0  0  0
    3.7884   -0.7860    0.6497 C   0  0  0  0  0  0  0  0  0  0  0  0
    7.7919    3.0687    2.3523 C   0  0  0  0  0  0  0  0  0  0  0  0
    8.3982    3.9569    3.2603 C   0  0  0  0  0  0  0  0  0  0  0  0
    8.5088    5.3304    2.9835 C   0  0  0  0  0  0  0  0  0  0  0  0
    9.1029    6.1995    3.9002 C   0  0  0  0  0  0  0  0  0  0  0  0
    9.5936    5.7083    5.1052 C   0  0  0  0  0  0  0  0  0  0  0  0
    9.4946    4.3472    5.3931 C   0  0  0  0  0  0  0  0  0  0  0  0
    8.9009    3.4621    4.4785 C   0  0  0  0  0  0  0  0  0  0  0  0
    8.7974    2.0920    4.7523 C   0  0  0  0  0  0  0  0  0  0  0  0
    3.6255    0.0309    4.6071 C   0  0  0  0  0  0  0  0  0  0  0  0
    1.5810    0.1471    3.9503 H   0  0  0  0  0  0  0  0  0  0  0  0
    0.7543   -1.4735    5.5869 H   0  0  0  0  0  0  0  0  0  0  0  0
    0.9760   -4.1635    8.0405 H   0  0  0  0  0  0  0  0  0  0  0  0
    0.9246   -3.8130    6.3093 H   0  0  0  0  0  0  0  0  0  0  0  0
    0.2428   -2.6464    7.5073 H   0  0  0  0  0  0  0  0  0  0  0  0
    6.5073   -0.2314    6.4452 H   0  0  0  0  0  0  0  0  0  0  0  0
    6.0128    0.9250    5.2429 H   0  0  0  0  0  0  0  0  0  0  0  0
    6.3240   -0.7898    3.5430 H   0  0  0  0  0  0  0  0  0  0  0  0
    7.3846   -2.4963    5.6886 H   0  0  0  0  0  0  0  0  0  0  0  0
    7.5202   -2.7822    3.9284 H   0  0  0  0  0  0  0  0  0  0  0  0
    5.9068   -2.7823    4.6494 H   0  0  0  0  0  0  0  0  0  0  0  0
    8.7033   -0.4211    5.1957 H   0  0  0  0  0  0  0  0  0  0  0  0
    8.6884   -0.8604    3.4953 H   0  0  0  0  0  0  0  0  0  0  0  0
    6.3746    2.2994    0.3408 H   0  0  0  0  0  0  0  0  0  0  0  0
    6.1716   -0.5017   -0.4980 H   0  0  0  0  0  0  0  0  0  0  0  0
    5.7868    0.9538   -1.4134 H   0  0  0  0  0  0  0  0  0  0  0  0
    3.6070    2.1866   -0.9977 H   0  0  0  0  0  0  0  0  0  0  0  0
    1.2297    1.9063   -0.4182 H   0  0  0  0  0  0  0  0  0  0  0  0
   -1.4383   -1.0837    1.4980 H   0  0  0  0  0  0  0  0  0  0  0  0
    0.0122   -1.2381    2.4974 H   0  0  0  0  0  0  0  0  0  0  0  0
   -0.1069   -2.0849    0.9056 H   0  0  0  0  0  0  0  0  0  0  0  0
    2.1462   -1.8223    1.5372 H   0  0  0  0  0  0  0  0  0  0  0  0
    4.4950   -1.5554    0.9595 H   0  0  0  0  0  0  0  0  0  0  0  0
    7.4243    3.4943    1.4247 H   0  0  0  0  0  0  0  0  0  0  0  0
    8.1298    5.7412    2.0500 H   0  0  0  0  0  0  0  0  0  0  0  0
    9.1800    7.2602    3.6737 H   0  0  0  0  0  0  0  0  0  0  0  0
   10.0532    6.3837    5.8232 H   0  0  0  0  0  0  0  0  0  0  0  0
    9.8836    3.9852    6.3431 H   0  0  0  0  0  0  0  0  0  0  0  0
    9.1956    1.7203    5.6986 H   0  0  0  0  0  0  0  0  0  0  0  0
    3.9591    0.7586    3.8705 H   0  0  0  0  0  0  0  0  0  0  0  0
 38  1  1  0
  1  2  2  0
  2 39  1  0
  2  3  1  0
  3  4  1  0
  4  5  1  0
  5 40  1  0
  5 41  1  0
  5 42  1  0
  3  6  2  0
  6  7  1  0
  7  8  2  0
  7  9  1  0
  6 10  1  0
 10 11  1  0
 11 43  1  0
 11 44  1  0
 11 12  1  0
 12 45  1  6
 12 13  1  0
 13 46  1  0
 13 47  1  0
 13 48  1  0
 12 14  1  0
 14 49  1  0
 14 50  1  0
 14 15  1  0
 15 16  1  0
 16 17  1  0
 17 18  2  0
 17 19  1  0
 19 51  1  0
 19 20  1  0
 20 52  1  0
 20 53  1  0
 20 21  1  0
 21 22  2  0
 22 54  1  0
 22 23  1  0
 23 55  1  0
 23 24  2  0
 24 25  1  0
 25 26  1  0
 26 56  1  0
 26 57  1  0
 26 58  1  0
 24 27  1  0
 27 59  1  0
 21 28  1  0
 27 28  2  0
 28 60  1  0
 16 29  2  0
 29 61  1  0
 29 30  1  0
 30 31  2  0
 31 62  1  0
 31 32  1  0
 32 63  1  0
 32 33  2  0
 33 64  1  0
 33 34  1  0
 34 65  1  0
 30 35  1  0
 34 35  2  0
 15 36  2  0
 35 36  1  0
 36 66  1  0
  1 37  1  0
 10 37  2  0
 37 67  1  0
M  CHG  2   9  -1  12   1
M  END
>  <conformer_energy>  (1) 
-27.80

>  <ligand_smiles>  (1) 
COc1ccc(CNC(=O)c2cc3ccccc3cc2C[N@@H+](C)Cc2cccc(OC)c2C(=O)[O-])cc1

>  <ligand_conf_name>  (1) 
MOL_0_isomer_0_conf_0

>  <ligand_molecule_name>  (1) 
MOL_0_isomer_0

$$$$
