MOL_0_isomer_0_conf_0
     RDKit          3D

 18 18  0  0  0  0  0  0  0  0999 V2000
   -1.4030    0.7989   -0.1214 C   0  0  0  0  0  0  0  0  0  0  0  0
   -0.2515    0.0988   -0.3859 C   0  0  0  0  0  0  0  0  0  0  0  0
    1.0813    0.5149   -0.9002 C   0  0  0  0  0  0  0  0  0  0  0  0
    2.2468   -0.2796   -0.3251 C   0  0  0  0  0  0  0  0  0  0  0  0
    2.2405   -1.6479   -0.9978 C   0  0  0  0  0  0  0  0  0  0  0  0
    2.9494   -1.7542   -2.0264 O   0  0  0  0  0  0  0  0  0  0  0  0
    1.4405   -2.4803   -0.4643 O   0  0  0  0  0  1  0  0  0  0  0  0
   -0.5779   -1.2111   -0.0866 N   0  0  0  0  0  0  0  0  0  0  0  0
   -1.8256   -1.3421    0.3307 C   0  0  0  0  0  0  0  0  0  0  0  0
   -2.3468   -0.1099    0.3187 N   0  0  0  0  0  4  0  0  0  0  0  0
   -1.6791    1.8357   -0.1943 H   0  0  0  0  0  0  0  0  0  0  0  0
    1.2167    1.5728   -0.6448 H   0  0  0  0  0  0  0  0  0  0  0  0
    1.0539    0.4454   -1.9942 H   0  0  0  0  0  0  0  0  0  0  0  0
    2.1749   -0.3855    0.7633 H   0  0  0  0  0  0  0  0  0  0  0  0
    3.1927    0.2267   -0.5492 H   0  0  0  0  0  0  0  0  0  0  0  0
    0.1092   -1.9952   -0.1855 H   0  0  0  0  0  0  0  0  0  0  0  0
   -2.3189   -2.2605    0.6223 H   0  0  0  0  0  0  0  0  0  0  0  0
   -3.2999    0.1081    0.5887 H   0  0  0  0  0  0  0  0  0  0  0  0
 11  1  1  0
  1  2  2  0
  2  3  1  0
  3 12  1  0
  3 13  1  0
  3  4  1  0
  4 14  1  0
  4 15  1  0
  4  5  1  0
  5  6  2  0
  5  7  1  0
  2  8  1  0
  8 16  1  0
  8  9  1  0
  9 17  1  0
  1 10  1  0
  9 10  2  0
 10 18  1  0
M  CHG  2   7  -1  10   1
M  END
>  <conformer_energy>  (1) 
-63.31

>  <ligand_smiles>  (1) 
O=C([O-])CCc1c[nH+]c[nH]1

>  <ligand_conf_name>  (1) 
MOL_0_isomer_0_conf_0

>  <ligand_molecule_name>  (1) 
MOL_0_isomer_0

$$$$
