MOL_0_isomer_0_conf_0
     RDKit          3D

 14 13  0  0  0  0  0  0  0  0999 V2000
   -0.6056    0.0207    1.3756 C   0  0  0  0  0  0  0  0  0  0  0  0
    0.0157    0.0609   -0.0046 C   0  0  0  0  0  0  0  0  0  0  0  0
    1.7983   -0.0306    0.0165 S   0  0  0  0  0  6  0  0  0  0  0  0
    2.1907   -1.1621    0.8338 O   0  0  0  0  0  0  0  0  0  0  0  0
    2.2503    0.0779   -1.3581 O   0  0  0  0  0  0  0  0  0  0  0  0
    2.3063    1.4524    0.8545 C   0  0  0  0  0  0  0  0  0  0  0  0
   -1.6973    0.0316    1.2981 H   0  0  0  0  0  0  0  0  0  0  0  0
   -0.3045    0.8843    1.9754 H   0  0  0  0  0  0  0  0  0  0  0  0
   -0.3134   -0.8840    1.9177 H   0  0  0  0  0  0  0  0  0  0  0  0
   -0.3312   -0.7911   -0.5983 H   0  0  0  0  0  0  0  0  0  0  0  0
   -0.2595    0.9792   -0.5322 H   0  0  0  0  0  0  0  0  0  0  0  0
    3.3963    1.5072    0.8119 H   0  0  0  0  0  0  0  0  0  0  0  0
    1.9814    1.4092    1.8947 H   0  0  0  0  0  0  0  0  0  0  0  0
    1.8709    2.3130    0.3437 H   0  0  0  0  0  0  0  0  0  0  0  0
  7  1  1  0
  1  8  1  0
  1  9  1  0
  1  2  1  0
  2 10  1  0
  2 11  1  0
  2  3  1  0
  3  4  2  0
  3  5  2  0
  3  6  1  0
  6 12  1  0
  6 13  1  0
  6 14  1  0
M  END
>  <conformer_energy>  (1) 
2.93

>  <ligand_smiles>  (1) 
CCS(C)(=O)=O

>  <ligand_conf_name>  (1) 
MOL_0_isomer_0_conf_0

>  <ligand_molecule_name>  (1) 
MOL_0_isomer_0

$$$$
