MOL_0_isomer_0_conf_0
     RDKit          3D

 57 60  0  0  0  0  0  0  0  0999 V2000
    6.3094   -4.4445    2.7482 O   0  0  0  0  0  0  0  0  0  0  0  0
    5.8694   -3.4152    1.8836 C   0  0  2  0  0  0  0  0  0  0  0  0
    6.2991   -2.1735    2.4353 O   0  0  0  0  0  0  0  0  0  0  0  0
    5.1778   -1.5631    3.1330 C   0  0  2  0  0  0  0  0  0  0  0  0
    5.5860   -1.1321    4.5382 C   0  0  0  0  0  0  0  0  0  0  0  0
    6.5193   -0.0676    4.4202 O   0  0  0  0  0  0  0  0  0  0  0  0
    6.2879    1.2355    5.3855 P   0  0  2  0  0  5  0  0  0  0  0  0
    7.4474    2.1563    5.0802 O   0  0  0  0  0  0  0  0  0  0  0  0
    6.0707    0.6695    6.7682 O   0  0  0  0  0  1  0  0  0  0  0  0
    4.9439    1.7497    4.6976 O   0  0  0  0  0  0  0  0  0  0  0  0
    3.7851    2.7451    5.1542 P   0  0  1  0  0  5  0  0  0  0  0  0
    2.8313    2.1102    6.1381 O   0  0  0  0  0  0  0  0  0  0  0  0
    4.2455    4.1755    5.2868 O   0  0  0  0  0  1  0  0  0  0  0  0
    2.9552    2.7348    3.7414 O   0  0  0  0  0  0  0  0  0  0  0  0
    2.4501    1.4861    3.3129 C   0  0  0  0  0  0  0  0  0  0  0  0
    2.8495    1.3158    1.8558 C   0  0  1  0  0  0  0  0  0  0  0  0
    2.3363    0.0918    1.2936 O   0  0  0  0  0  0  0  0  0  0  0  0
    1.9673    0.3639   -0.0847 C   0  0  1  0  0  0  0  0  0  0  0  0
    0.5560    0.0685   -0.2637 N   0  0  0  0  0  0  0  0  0  0  0  0
   -0.3809   -0.1757    0.7055 C   0  0  0  0  0  0  0  0  0  0  0  0
   -1.5726   -0.4106    0.1929 N   0  0  0  0  0  0  0  0  0  0  0  0
   -1.3892   -0.3355   -1.1715 C   0  0  0  0  0  0  0  0  0  0  0  0
   -2.2658   -0.5024   -2.2566 C   0  0  0  0  0  0  0  0  0  0  0  0
   -3.5979   -0.8080   -2.1009 N   0  0  0  0  0  0  0  0  0  0  0  0
   -1.7807   -0.3579   -3.5113 N   0  0  0  0  0  0  0  0  0  0  0  0
   -0.4713   -0.0581   -3.6545 C   0  0  0  0  0  0  0  0  0  0  0  0
    0.4588    0.1234   -2.6973 N   0  0  0  0  0  0  0  0  0  0  0  0
   -0.0733   -0.0356   -1.4754 C   0  0  0  0  0  0  0  0  0  0  0  0
    2.3275    1.8234   -0.3851 C   0  0  2  0  0  0  0  0  0  0  0  0
    3.6525    1.9169   -0.9399 O   0  0  0  0  0  0  0  0  0  0  0  0
    2.3100    2.4534    0.9939 C   0  0  2  0  0  0  0  0  0  0  0  0
    3.1200    3.6247    1.0205 O   0  0  0  0  0  0  0  0  0  0  0  0
    4.0481   -2.5932    3.1092 C   0  0  1  0  0  0  0  0  0  0  0  0
    2.7398   -2.0388    3.1071 O   0  0  0  0  0  0  0  0  0  0  0  0
    4.3471   -3.3458    1.8201 C   0  0  1  0  0  0  0  0  0  0  0  0
    3.9075   -2.5912    0.6716 O   0  0  0  0  0  0  0  0  0  0  0  0
    7.1928   -4.1301    3.0218 H   0  0  0  0  0  0  0  0  0  0  0  0
    6.3285   -3.5465    0.8993 H   0  0  0  0  0  0  0  0  0  0  0  0
    4.9081   -0.6729    2.5570 H   0  0  0  0  0  0  0  0  0  0  0  0
    6.0882   -1.9486    5.0663 H   0  0  0  0  0  0  0  0  0  0  0  0
    4.7032   -0.8272    5.1110 H   0  0  0  0  0  0  0  0  0  0  0  0
    2.8258    0.6491    3.9099 H   0  0  0  0  0  0  0  0  0  0  0  0
    1.3615    1.4862    3.4234 H   0  0  0  0  0  0  0  0  0  0  0  0
    3.9438    1.2914    1.7874 H   0  0  0  0  0  0  0  0  0  0  0  0
    2.5248   -0.3378   -0.7155 H   0  0  0  0  0  0  0  0  0  0  0  0
   -0.1430   -0.1749    1.7633 H   0  0  0  0  0  0  0  0  0  0  0  0
   -4.1635   -0.9178   -2.9234 H   0  0  0  0  0  0  0  0  0  0  0  0
   -3.9564   -0.9196   -1.1626 H   0  0  0  0  0  0  0  0  0  0  0  0
   -0.1228    0.0510   -4.6775 H   0  0  0  0  0  0  0  0  0  0  0  0
    1.6558    2.3274   -1.0865 H   0  0  0  0  0  0  0  0  0  0  0  0
    4.0283    2.7352   -0.5442 H   0  0  0  0  0  0  0  0  0  0  0  0
    1.2827    2.7151    1.2746 H   0  0  0  0  0  0  0  0  0  0  0  0
    3.2952    3.8103    1.9765 H   0  0  0  0  0  0  0  0  0  0  0  0
    4.1308   -3.2725    3.9658 H   0  0  0  0  0  0  0  0  0  0  0  0
    2.6493   -1.5056    2.2894 H   0  0  0  0  0  0  0  0  0  0  0  0
    3.8602   -4.3240    1.7882 H   0  0  0  0  0  0  0  0  0  0  0  0
    4.4531   -1.7830    0.6310 H   0  0  0  0  0  0  0  0  0  0  0  0
 37  1  1  0
  1  2  1  0
  2 38  1  6
  2  3  1  0
  3  4  1  0
  4 39  1  6
  4  5  1  0
  5 40  1  0
  5 41  1  0
  5  6  1  0
  6  7  1  0
  7  8  2  0
  7  9  1  1
  7 10  1  0
 10 11  1  0
 11 12  2  0
 11 13  1  1
 11 14  1  0
 14 15  1  0
 15 42  1  0
 15 43  1  0
 15 16  1  0
 16 44  1  1
 16 17  1  0
 17 18  1  0
 18 45  1  6
 18 19  1  0
 19 20  1  0
 20 46  1  0
 20 21  2  0
 21 22  1  0
 22 23  1  0
 23 24  1  0
 24 47  1  0
 24 48  1  0
 23 25  2  0
 25 26  1  0
 26 49  1  0
 26 27  2  0
 22 28  2  0
 19 28  1  0
 27 28  1  0
 18 29  1  0
 29 50  1  6
 29 30  1  0
 30 51  1  0
 16 31  1  0
 29 31  1  0
 31 52  1  1
 31 32  1  0
 32 53  1  0
  4 33  1  0
 33 54  1  1
 33 34  1  0
 34 55  1  0
  2 35  1  0
 33 35  1  0
 35 56  1  1
 35 36  1  0
 36 57  1  0
M  CHG  2   9  -1  13  -1
M  END
>  <conformer_energy>  (1) 
-19.80

>  <ligand_smiles>  (1) 
Nc1ncnc2c1ncn2[C@@H]1O[C@H](CO[P@](=O)([O-])O[P@@](=O)([O-])OC[C@H]2O[C@@H](O)[C@H](O)[C@@H]2O)[C@@H](O)[C@H]1O

>  <ligand_conf_name>  (1) 
MOL_0_isomer_0_conf_0

>  <ligand_molecule_name>  (1) 
MOL_0_isomer_0

$$$$
