MOL_0_isomer_0_conf_0
     RDKit          3D

 50 53  0  0  0  0  0  0  0  0999 V2000
    7.5580    1.1887    2.5487 C   0  0  0  0  0  0  0  0  0  0  0  0
    8.8605    1.3992    3.0128 C   0  0  0  0  0  0  0  0  0  0  0  0
    9.9104    1.4449    2.0986 C   0  0  0  0  0  0  0  0  0  0  0  0
   11.5698    1.7086    2.6610 S   0  0  0  0  0  6  0  0  0  0  0  0
   12.4713    1.0272    1.7636 O   0  0  0  0  0  0  0  0  0  0  0  0
   11.6054    1.5212    4.0932 O   0  0  0  0  0  0  0  0  0  0  0  0
   11.7464    3.3662    2.4185 N   0  0  0  0  0  0  0  0  0  0  0  0
    9.6698    1.2617    0.7376 C   0  0  0  0  0  0  0  0  0  0  0  0
    8.3607    1.0527    0.2882 C   0  0  0  0  0  0  0  0  0  0  0  0
    7.2820    1.0135    1.1800 C   0  0  0  0  0  0  0  0  0  0  0  0
    5.9536    0.8161    0.7910 N   0  0  0  0  0  0  0  0  0  0  0  0
    5.3096    0.6381   -0.4329 C   0  0  0  0  0  0  0  0  0  0  0  0
    3.9730    0.4666   -0.3203 N   0  0  0  0  0  0  0  0  0  0  0  0
    3.2218    0.2824   -1.4393 C   0  0  0  0  0  0  0  0  0  0  0  0
    1.8555    0.1078   -1.3424 O   0  0  0  0  0  0  0  0  0  0  0  0
    1.3747    0.0891    0.0019 C   0  0  0  0  0  0  0  0  0  0  0  0
   -0.1450   -0.1397   -0.0184 C   0  0  0  0  0  0  0  0  0  0  0  0
   -0.7218   -0.0318    1.4000 C   0  0  0  0  0  0  0  0  0  0  0  0
   -2.2249   -0.2977    1.4233 C   0  0  0  0  0  0  0  0  0  0  0  0
   -2.5674   -1.6440    0.7940 C   0  0  0  0  0  0  0  0  0  0  0  0
   -2.0035   -1.7608   -0.6181 C   0  0  0  0  0  0  0  0  0  0  0  0
   -0.4996   -1.4970   -0.6498 C   0  0  0  0  0  0  0  0  0  0  0  0
    3.8450    0.2762   -2.6854 C   0  0  0  0  0  0  0  0  0  0  0  0
    3.4048    0.1217   -3.9839 N   0  0  0  0  0  0  0  0  0  0  0  0
    4.4891    0.2117   -4.7246 C   0  0  0  0  0  0  0  0  0  0  0  0
    5.6076    0.4184   -3.9647 N   0  0  0  0  0  0  0  0  0  0  0  0
    5.2132    0.4633   -2.6592 C   0  0  0  0  0  0  0  0  0  0  0  0
    5.9952    0.6488   -1.5901 N   0  0  0  0  0  0  0  0  0  0  0  0
    6.7491    1.1572    3.2763 H   0  0  0  0  0  0  0  0  0  0  0  0
    9.0391    1.5201    4.0790 H   0  0  0  0  0  0  0  0  0  0  0  0
   10.9788    3.7802    1.8909 H   0  0  0  0  0  0  0  0  0  0  0  0
   11.8754    3.8194    3.3248 H   0  0  0  0  0  0  0  0  0  0  0  0
   10.4886    1.2729    0.0206 H   0  0  0  0  0  0  0  0  0  0  0  0
    8.2098    0.9118   -0.7777 H   0  0  0  0  0  0  0  0  0  0  0  0
    5.2611    0.7750    1.5252 H   0  0  0  0  0  0  0  0  0  0  0  0
    1.8614   -0.7153    0.5689 H   0  0  0  0  0  0  0  0  0  0  0  0
    1.5863    1.0532    0.4819 H   0  0  0  0  0  0  0  0  0  0  0  0
   -0.5982    0.6422   -0.6437 H   0  0  0  0  0  0  0  0  0  0  0  0
   -0.5270    0.9674    1.8075 H   0  0  0  0  0  0  0  0  0  0  0  0
   -0.2187   -0.7483    2.0621 H   0  0  0  0  0  0  0  0  0  0  0  0
   -2.7452    0.5019    0.8818 H   0  0  0  0  0  0  0  0  0  0  0  0
   -2.5875   -0.2714    2.4571 H   0  0  0  0  0  0  0  0  0  0  0  0
   -3.6552   -1.7735    0.7689 H   0  0  0  0  0  0  0  0  0  0  0  0
   -2.1633   -2.4516    1.4167 H   0  0  0  0  0  0  0  0  0  0  0  0
   -2.5127   -1.0449   -1.2750 H   0  0  0  0  0  0  0  0  0  0  0  0
   -2.2100   -2.7610   -1.0154 H   0  0  0  0  0  0  0  0  0  0  0  0
    0.0189   -2.3023   -0.1138 H   0  0  0  0  0  0  0  0  0  0  0  0
   -0.1546   -1.5347   -1.6897 H   0  0  0  0  0  0  0  0  0  0  0  0
    4.5267    0.1358   -5.8037 H   0  0  0  0  0  0  0  0  0  0  0  0
    6.5560    0.5194   -4.2933 H   0  0  0  0  0  0  0  0  0  0  0  0
 29  1  1  0
  1  2  2  0
  2 30  1  0
  2  3  1  0
  3  4  1  0
  4  5  2  0
  4  6  2  0
  4  7  1  0
  7 31  1  0
  7 32  1  0
  3  8  2  0
  8 33  1  0
  8  9  1  0
  9 34  1  0
  1 10  1  0
  9 10  2  0
 10 11  1  0
 11 35  1  0
 11 12  1  0
 12 13  2  0
 13 14  1  0
 14 15  1  0
 15 16  1  0
 16 36  1  0
 16 37  1  0
 16 17  1  0
 17 38  1  0
 17 18  1  0
 18 39  1  0
 18 40  1  0
 18 19  1  0
 19 41  1  0
 19 42  1  0
 19 20  1  0
 20 43  1  0
 20 44  1  0
 20 21  1  0
 21 45  1  0
 21 46  1  0
 17 22  1  0
 21 22  1  0
 22 47  1  0
 22 48  1  0
 14 23  2  0
 23 24  1  0
 24 25  2  0
 25 49  1  0
 25 26  1  0
 26 50  1  0
 23 27  1  0
 26 27  1  0
 12 28  1  0
 27 28  2  0
M  END
>  <conformer_energy>  (1) 
-83.64

>  <ligand_smiles>  (1) 
NS(=O)(=O)c1ccc(Nc2nc(OCC3CCCCC3)c3nc[nH]c3n2)cc1

>  <ligand_conf_name>  (1) 
MOL_0_isomer_0_conf_0

>  <ligand_molecule_name>  (1) 
MOL_0_isomer_0

$$$$
