MOL_0_isomer_0_conf_0
     RDKit          3D

 40 41  0  0  0  0  0  0  0  0999 V2000
    1.8762    1.5224   -2.1729 C   0  0  0  0  0  0  0  0  0  0  0  0
    2.4704    1.3756   -3.4327 C   0  0  0  0  0  0  0  0  0  0  0  0
    2.5127    2.3682   -4.3755 O   0  0  0  0  0  0  0  0  0  0  0  0
    2.4320    3.7099   -3.9066 C   0  0  0  0  0  0  0  0  0  0  0  0
    2.9894    0.1247   -3.8029 C   0  0  0  0  0  0  0  0  0  0  0  0
    3.4814   -0.1020   -5.0649 O   0  0  0  0  0  0  0  0  0  0  0  0
    4.7807    0.4674   -5.2207 C   0  0  0  0  0  0  0  0  0  0  0  0
    2.9311   -0.9523   -2.9118 C   0  0  0  0  0  0  0  0  0  0  0  0
    3.3611   -2.1914   -3.3071 O   0  0  0  0  0  0  0  0  0  0  0  0
    4.5876   -2.5360   -2.6599 C   0  0  0  0  0  0  0  0  0  0  0  0
    2.3367   -0.8020   -1.6597 C   0  0  0  0  0  0  0  0  0  0  0  0
    1.7910    0.4336   -1.2860 C   0  0  0  0  0  0  0  0  0  0  0  0
    1.0227    0.5577    0.0114 C   0  0  0  0  0  0  0  0  0  0  0  0
   -0.3969    0.0289   -0.0306 C   0  0  0  0  0  0  0  0  0  0  0  0
   -1.1361   -0.1439    1.1357 C   0  0  0  0  0  0  0  0  0  0  0  0
   -0.6153    0.1180    2.3795 N   0  0  0  0  0  0  0  0  0  0  0  0
   -2.3807   -0.6498    1.1353 N   0  0  0  0  0  0  0  0  0  0  0  0
   -2.9230   -0.9644   -0.0490 C   0  0  0  0  0  0  0  0  0  0  0  0
   -4.1849   -1.4826   -0.0585 N   0  0  0  0  0  0  0  0  0  0  0  0
   -2.2832   -0.7954   -1.2020 N   0  0  0  0  0  4  0  0  0  0  0  0
   -1.0410   -0.3039   -1.2217 C   0  0  0  0  0  0  0  0  0  0  0  0
    1.4351    2.4719   -1.8819 H   0  0  0  0  0  0  0  0  0  0  0  0
    2.7193    4.3693   -4.7304 H   0  0  0  0  0  0  0  0  0  0  0  0
    3.1262    3.8886   -3.0781 H   0  0  0  0  0  0  0  0  0  0  0  0
    1.4044    3.9585   -3.6215 H   0  0  0  0  0  0  0  0  0  0  0  0
    5.2144    0.0596   -6.1401 H   0  0  0  0  0  0  0  0  0  0  0  0
    5.4444    0.2008   -4.3879 H   0  0  0  0  0  0  0  0  0  0  0  0
    4.7268    1.5561   -5.3295 H   0  0  0  0  0  0  0  0  0  0  0  0
    4.9864   -3.4270   -3.1518 H   0  0  0  0  0  0  0  0  0  0  0  0
    4.4163   -2.7809   -1.6065 H   0  0  0  0  0  0  0  0  0  0  0  0
    5.3312   -1.7368   -2.7513 H   0  0  0  0  0  0  0  0  0  0  0  0
    2.2681   -1.6628   -0.9977 H   0  0  0  0  0  0  0  0  0  0  0  0
    0.9945    1.6115    0.3159 H   0  0  0  0  0  0  0  0  0  0  0  0
    1.5903    0.0238    0.7849 H   0  0  0  0  0  0  0  0  0  0  0  0
   -1.2351   -0.1043    3.1534 H   0  0  0  0  0  0  0  0  0  0  0  0
    0.0057    0.8994    2.5353 H   0  0  0  0  0  0  0  0  0  0  0  0
   -4.7145   -1.7774   -0.8602 H   0  0  0  0  0  0  0  0  0  0  0  0
   -4.6035   -1.6034    0.8580 H   0  0  0  0  0  0  0  0  0  0  0  0
   -2.7575   -1.0569   -2.0579 H   0  0  0  0  0  0  0  0  0  0  0  0
   -0.5976   -0.2085   -2.2070 H   0  0  0  0  0  0  0  0  0  0  0  0
 22  1  1  0
  1  2  2  0
  2  3  1  0
  3  4  1  0
  4 23  1  0
  4 24  1  0
  4 25  1  0
  2  5  1  0
  5  6  1  0
  6  7  1  0
  7 26  1  0
  7 27  1  0
  7 28  1  0
  5  8  2  0
  8  9  1  0
  9 10  1  0
 10 29  1  0
 10 30  1  0
 10 31  1  0
  8 11  1  0
 11 32  1  0
  1 12  1  0
 11 12  2  0
 12 13  1  0
 13 33  1  0
 13 34  1  0
 13 14  1  0
 14 15  2  0
 15 16  1  0
 16 35  1  0
 16 36  1  0
 15 17  1  0
 17 18  2  0
 18 19  1  0
 19 37  1  0
 19 38  1  0
 18 20  1  0
 20 39  1  0
 14 21  1  0
 20 21  2  0
 21 40  1  0
M  CHG  1  20   1
M  END
>  <conformer_energy>  (1) 
-31.30

>  <ligand_smiles>  (1) 
COc1cc(Cc2c[nH+]c(N)nc2N)cc(OC)c1OC

>  <ligand_conf_name>  (1) 
MOL_0_isomer_0_conf_0

>  <ligand_molecule_name>  (1) 
MOL_0_isomer_0

$$$$
