MOL_0_isomer_0_conf_0
     RDKit          3D

 33 36  0  0  0  0  0  0  0  0999 V2000
    5.1820    0.8719    2.8449 C   0  0  0  0  0  0  0  0  0  0  0  0
    6.1463    0.5312    1.9022 C   0  0  0  0  0  0  0  0  0  0  0  0
    5.7566    0.1029    0.6282 C   0  0  0  0  0  0  0  0  0  0  0  0
    6.8759   -0.2977   -0.4240 C   0  0  0  0  0  0  0  0  0  0  0  0
    6.6284   -0.7384   -1.6805 N   0  0  0  0  0  0  0  0  0  0  0  0
    7.8534   -0.9674   -2.2115 N   0  0  0  0  0  0  0  0  0  0  0  0
    8.8010   -0.6704   -1.2972 N   0  0  0  0  0  0  0  0  0  0  0  0
    8.2064   -0.2444   -0.1586 N   0  0  0  0  0  2  0  0  0  0  0  0
    4.3966    0.0208    0.2916 C   0  0  0  0  0  0  0  0  0  0  0  0
    3.4248    0.3614    1.2354 C   0  0  0  0  0  0  0  0  0  0  0  0
    2.0333    0.2942    1.0080 N   0  0  0  0  0  0  0  0  0  0  0  0
    1.3841   -0.0060   -0.1737 C   0  0  0  0  0  0  0  0  0  0  0  0
    1.8794   -0.1605   -1.2808 O   0  0  0  0  0  0  0  0  0  0  0  0
   -0.0988   -0.0927   -0.0563 C   0  0  0  0  0  0  0  0  0  0  0  0
   -0.7053   -0.6971    1.0548 C   0  0  0  0  0  0  0  0  0  0  0  0
   -2.0991   -0.7780    1.1628 C   0  0  0  0  0  0  0  0  0  0  0  0
   -2.8492   -0.2393    0.1128 C   0  0  0  0  0  0  0  0  0  0  0  0
   -2.2749    0.3492   -1.0085 C   0  0  0  0  0  0  0  0  0  0  0  0
   -3.3739    0.7392   -1.8055 C   0  0  0  0  0  0  0  0  0  0  0  0
   -4.5500    0.4377   -1.2472 N   0  0  0  0  0  0  0  0  0  0  0  0
   -4.2019   -0.1621   -0.0950 N   0  0  0  0  0  0  0  0  0  0  0  0
   -0.8757    0.4219   -1.1077 C   0  0  0  0  0  0  0  0  0  0  0  0
    3.8294    0.7833    2.5126 C   0  0  0  0  0  0  0  0  0  0  0  0
    5.4866    1.2025    3.8333 H   0  0  0  0  0  0  0  0  0  0  0  0
    7.2030    0.5934    2.1543 H   0  0  0  0  0  0  0  0  0  0  0  0
    4.1311   -0.3202   -0.7053 H   0  0  0  0  0  0  0  0  0  0  0  0
    1.4535    0.5372    1.7984 H   0  0  0  0  0  0  0  0  0  0  0  0
   -0.0956   -1.1443    1.8374 H   0  0  0  0  0  0  0  0  0  0  0  0
   -2.5685   -1.2532    2.0181 H   0  0  0  0  0  0  0  0  0  0  0  0
   -3.3593    1.2323   -2.7690 H   0  0  0  0  0  0  0  0  0  0  0  0
   -4.9399   -0.4995    0.5115 H   0  0  0  0  0  0  0  0  0  0  0  0
   -0.3983    0.8666   -1.9778 H   0  0  0  0  0  0  0  0  0  0  0  0
    3.0962    1.0538    3.2669 H   0  0  0  0  0  0  0  0  0  0  0  0
 24  1  1  0
  1  2  2  0
  2 25  1  0
  2  3  1  0
  3  4  1  0
  4  5  2  0
  5  6  1  0
  6  7  2  0
  4  8  1  0
  7  8  1  0
  3  9  2  0
  9 26  1  0
  9 10  1  0
 10 11  1  0
 11 27  1  0
 11 12  1  0
 12 13  2  0
 12 14  1  0
 14 15  2  0
 15 28  1  0
 15 16  1  0
 16 29  1  0
 16 17  2  0
 17 18  1  0
 18 19  1  0
 19 30  1  0
 19 20  2  0
 17 21  1  0
 20 21  1  0
 21 31  1  0
 14 22  1  0
 18 22  2  0
 22 32  1  0
  1 23  1  0
 10 23  2  0
 23 33  1  0
M  CHG  1   8  -1
M  END
>  <conformer_energy>  (1) 
57.18

>  <ligand_smiles>  (1) 
O=C(Nc1cccc(-c2nnn[n-]2)c1)c1ccc2[nH]ncc2c1

>  <ligand_conf_name>  (1) 
MOL_0_isomer_0_conf_0

>  <ligand_molecule_name>  (1) 
MOL_0_isomer_0

$$$$
