MOL_0_isomer_0_conf_0
     RDKit          3D

 22 22  0  0  0  0  0  0  0  0999 V2000
    0.0636    0.7951   -1.3151 C   0  0  0  0  0  0  0  0  0  0  0  0
   -0.9614    1.0754   -2.1082 C   0  0  0  0  0  0  0  0  0  0  0  0
   -0.8408    1.8814   -3.1807 F   0  0  0  0  0  0  0  0  0  0  0  0
   -2.2836    0.4713   -1.8381 C   0  0  0  0  0  0  0  0  0  0  0  0
   -3.2008    0.7190   -2.6216 O   0  0  0  0  0  0  0  0  0  0  0  0
   -2.4107   -0.3181   -0.7687 N   0  0  0  0  0  2  0  0  0  0  0  0
   -1.3862   -0.5920    0.0364 C   0  0  0  0  0  0  0  0  0  0  0  0
   -1.4853   -1.3720    0.9908 O   0  0  0  0  0  0  0  0  0  0  0  0
   -0.1251   -0.0410   -0.2439 N   0  0  0  0  0  0  0  0  0  0  0  0
    1.0257   -0.3811    0.6138 C   0  0  0  0  0  0  0  0  0  0  0  0
    1.5757   -1.7762    0.3056 C   0  0  1  0  0  0  0  0  0  0  0  0
    2.8030   -2.0527    1.2077 C   0  0  0  0  0  0  0  0  0  0  0  0
    2.6817   -3.1735    1.8039 O   0  0  0  0  0  0  0  0  0  0  0  0
    3.7220   -1.2013    1.2220 O   0  0  0  0  0  1  0  0  0  0  0  0
    0.5159   -2.8411    0.5240 N   0  0  0  0  0  4  0  0  0  0  0  0
    1.0469    1.2108   -1.4921 H   0  0  0  0  0  0  0  0  0  0  0  0
    0.6984   -0.3288    1.6606 H   0  0  0  0  0  0  0  0  0  0  0  0
    1.8000    0.3863    0.4919 H   0  0  0  0  0  0  0  0  0  0  0  0
    1.8754   -1.8680   -0.7440 H   0  0  0  0  0  0  0  0  0  0  0  0
   -0.3186   -2.4270    0.9885 H   0  0  0  0  0  0  0  0  0  0  0  0
    0.9666   -3.5090    1.1798 H   0  0  0  0  0  0  0  0  0  0  0  0
    0.2038   -3.2873   -0.3337 H   0  0  0  0  0  0  0  0  0  0  0  0
 16  1  1  0
  1  2  2  0
  2  3  1  0
  2  4  1  0
  4  5  2  0
  4  6  1  0
  6  7  1  0
  7  8  2  0
  1  9  1  0
  7  9  1  0
  9 10  1  0
 10 17  1  0
 10 18  1  0
 10 11  1  0
 11 19  1  6
 11 12  1  0
 12 13  2  0
 12 14  1  0
 11 15  1  0
 15 20  1  0
 15 21  1  0
 15 22  1  0
M  CHG  3   6  -1  14  -1  15   1
M  END
>  <conformer_energy>  (1) 
-27.22

>  <ligand_smiles>  (1) 
[NH3+][C@@H](Cn1cc(F)c(=O)[n-]c1=O)C(=O)[O-]

>  <ligand_conf_name>  (1) 
MOL_0_isomer_0_conf_0

>  <ligand_molecule_name>  (1) 
MOL_0_isomer_0

$$$$
