MOL_0_isomer_0_conf_0
     RDKit          3D

 15 15  0  0  0  0  0  0  0  0999 V2000
    4.1983   -0.0213    0.1266 C   0  0  0  0  0  0  0  0  0  0  0  0
    3.5045    0.5021    1.1589 N   0  0  0  0  0  0  0  0  0  0  0  0
    2.1514    0.5039    1.0461 C   0  0  0  0  0  0  0  0  0  0  0  0
    1.4614    0.0159   -0.0583 C   0  0  0  0  0  0  0  0  0  0  0  0
   -0.0179    0.0840   -0.0485 C   0  0  0  0  0  0  0  0  0  0  0  0
   -0.6387    0.3123    0.9822 O   0  0  0  0  0  0  0  0  0  0  0  0
   -0.6822   -0.0950   -1.2296 N   0  0  0  0  0  0  0  0  0  0  0  0
    2.2119   -0.5262   -1.1044 C   0  0  0  0  0  0  0  0  0  0  0  0
    3.6039   -0.5435   -1.0115 C   0  0  0  0  0  0  0  0  0  0  0  0
    5.2785   -0.0139    0.2432 H   0  0  0  0  0  0  0  0  0  0  0  0
    1.6247    0.9278    1.8983 H   0  0  0  0  0  0  0  0  0  0  0  0
   -0.2440   -0.2167   -2.1290 H   0  0  0  0  0  0  0  0  0  0  0  0
   -1.6927   -0.0393   -1.1974 H   0  0  0  0  0  0  0  0  0  0  0  0
    1.7420   -0.9550   -1.9821 H   0  0  0  0  0  0  0  0  0  0  0  0
    4.2126   -0.9610   -1.8064 H   0  0  0  0  0  0  0  0  0  0  0  0
 10  1  1  0
  1  2  2  0
  2  3  1  0
  3 11  1  0
  3  4  2  0
  4  5  1  0
  5  6  2  0
  5  7  1  0
  7 12  1  0
  7 13  1  0
  4  8  1  0
  8 14  1  0
  1  9  1  0
  8  9  2  0
  9 15  1  0
M  END
>  <conformer_energy>  (1) 
5.07

>  <ligand_smiles>  (1) 
NC(=O)c1cccnc1

>  <ligand_conf_name>  (1) 
MOL_0_isomer_0_conf_0

>  <ligand_molecule_name>  (1) 
MOL_0_isomer_0

$$$$
