MOL_0_isomer_0_conf_0
     RDKit          3D

 53 56  0  0  0  0  0  0  0  0999 V2000
    5.2203    4.3665   -3.7455 C   0  0  0  0  0  0  0  0  0  0  0  0
    4.6975    3.4002   -2.8765 C   0  0  0  0  0  0  0  0  0  0  0  0
    5.5229    2.6878   -1.9993 C   0  0  0  0  0  0  0  0  0  0  0  0
    5.0628    1.7520   -1.0936 N   0  0  0  0  0  0  0  0  0  0  0  0
    3.6700    1.3904   -0.8640 C   0  0  1  0  0  0  0  0  0  0  0  0
    3.2560    0.1185   -1.5735 C   0  0  0  0  0  0  0  0  0  0  0  0
    3.9982   -0.4509   -2.6254 C   0  0  0  0  0  0  0  0  0  0  0  0
    3.5972   -1.6406   -3.2538 C   0  0  0  0  0  0  0  0  0  0  0  0
    4.3960   -2.2355   -4.3393 C   0  0  0  0  0  0  0  0  0  0  0  0
    4.7802   -3.5856   -4.2996 C   0  0  0  0  0  0  0  0  0  0  0  0
    5.5367   -4.1528   -5.3314 C   0  0  0  0  0  0  0  0  0  0  0  0
    5.9355   -3.3900   -6.4380 C   0  0  0  0  0  0  0  0  0  0  0  0
    6.7535   -4.0068   -7.5567 C   0  0  0  0  0  0  0  0  0  0  0  0
    7.0746   -3.2487   -8.5258 O   0  0  0  0  0  0  0  0  0  0  0  0
    7.0563   -5.2367   -7.4418 O   0  0  0  0  0  1  0  0  0  0  0  0
    5.5556   -2.0408   -6.4787 C   0  0  0  0  0  0  0  0  0  0  0  0
    4.7992   -1.4725   -5.4467 C   0  0  0  0  0  0  0  0  0  0  0  0
    2.4209   -2.2526   -2.8026 C   0  0  0  0  0  0  0  0  0  0  0  0
    1.6604   -1.6891   -1.7736 C   0  0  0  0  0  0  0  0  0  0  0  0
    2.0530   -0.4912   -1.1704 C   0  0  0  0  0  0  0  0  0  0  0  0
    1.2876    0.1187   -0.1324 N   0  0  0  0  0  0  0  0  0  0  0  0
   -0.1094    0.1794   -0.0871 C   0  0  0  0  0  0  0  0  0  0  0  0
   -0.7197    0.5811    0.9095 O   0  0  0  0  0  0  0  0  0  0  0  0
   -0.9055   -0.1723   -1.3224 C   0  0  0  0  0  0  0  0  0  0  0  0
    2.0257    0.8021    0.9519 C   0  0  1  0  0  0  0  0  0  0  0  0
    1.9716   -0.0051    2.2576 C   0  0  0  0  0  0  0  0  0  0  0  0
    3.4937    1.1171    0.6275 C   0  0  0  0  0  0  0  0  0  0  0  0
    6.8940    2.9883   -2.0119 C   0  0  0  0  0  0  0  0  0  0  0  0
    7.4259    3.9521   -2.8753 C   0  0  0  0  0  0  0  0  0  0  0  0
    6.5833    4.6396   -3.7396 C   0  0  0  0  0  0  0  0  0  0  0  0
    7.2249    5.8349   -4.7968 Cl  0  0  0  0  0  0  0  0  0  0  0  0
    4.5553    4.8940   -4.4235 H   0  0  0  0  0  0  0  0  0  0  0  0
    3.6305    3.2072   -2.9249 H   0  0  0  0  0  0  0  0  0  0  0  0
    5.7553    1.1402   -0.6752 H   0  0  0  0  0  0  0  0  0  0  0  0
    2.9949    2.2053   -1.1494 H   0  0  0  0  0  0  0  0  0  0  0  0
    4.9202    0.0251   -2.9567 H   0  0  0  0  0  0  0  0  0  0  0  0
    4.5060   -4.2143   -3.4567 H   0  0  0  0  0  0  0  0  0  0  0  0
    5.8265   -5.2014   -5.2806 H   0  0  0  0  0  0  0  0  0  0  0  0
    5.8558   -1.4328   -7.3310 H   0  0  0  0  0  0  0  0  0  0  0  0
    4.5208   -0.4250   -5.5275 H   0  0  0  0  0  0  0  0  0  0  0  0
    2.0845   -3.1820   -3.2596 H   0  0  0  0  0  0  0  0  0  0  0  0
    0.7862   -2.2343   -1.4335 H   0  0  0  0  0  0  0  0  0  0  0  0
   -1.1813   -1.2287   -1.3027 H   0  0  0  0  0  0  0  0  0  0  0  0
   -0.3714    0.0775   -2.2416 H   0  0  0  0  0  0  0  0  0  0  0  0
   -1.8285    0.4175   -1.3211 H   0  0  0  0  0  0  0  0  0  0  0  0
    1.5115    1.7572    1.1266 H   0  0  0  0  0  0  0  0  0  0  0  0
    2.5142    0.5121    3.0562 H   0  0  0  0  0  0  0  0  0  0  0  0
    0.9455   -0.1586    2.6035 H   0  0  0  0  0  0  0  0  0  0  0  0
    2.4207   -0.9958    2.1245 H   0  0  0  0  0  0  0  0  0  0  0  0
    4.1386    0.2780    0.9287 H   0  0  0  0  0  0  0  0  0  0  0  0
    3.8235    1.9774    1.2247 H   0  0  0  0  0  0  0  0  0  0  0  0
    7.5706    2.4650   -1.3401 H   0  0  0  0  0  0  0  0  0  0  0  0
    8.4929    4.1546   -2.8644 H   0  0  0  0  0  0  0  0  0  0  0  0
 32  1  1  0
  1  2  2  0
  2 33  1  0
  2  3  1  0
  3  4  1  0
  4 34  1  0
  4  5  1  0
  5 35  1  6
  5  6  1  0
  6  7  2  0
  7 36  1  0
  7  8  1  0
  8  9  1  0
  9 10  2  0
 10 37  1  0
 10 11  1  0
 11 38  1  0
 11 12  2  0
 12 13  1  0
 13 14  2  0
 13 15  1  0
 12 16  1  0
 16 39  1  0
  9 17  1  0
 16 17  2  0
 17 40  1  0
  8 18  2  0
 18 41  1  0
 18 19  1  0
 19 42  1  0
  6 20  1  0
 19 20  2  0
 20 21  1  0
 21 22  1  0
 22 23  2  0
 22 24  1  0
 24 43  1  0
 24 44  1  0
 24 45  1  0
 21 25  1  0
 25 46  1  1
 25 26  1  0
 26 47  1  0
 26 48  1  0
 26 49  1  0
  5 27  1  0
 25 27  1  0
 27 50  1  0
 27 51  1  0
  3 28  2  0
 28 52  1  0
 28 29  1  0
 29 53  1  0
  1 30  1  0
 29 30  2  0
 30 31  1  0
M  CHG  1  15  -1
M  END
>  <conformer_energy>  (1) 
67.43

>  <ligand_smiles>  (1) 
CC(=O)N1c2ccc(-c3ccc(C(=O)[O-])cc3)cc2[C@H](Nc2ccc(Cl)cc2)C[C@@H]1C

>  <ligand_conf_name>  (1) 
MOL_0_isomer_0_conf_0

>  <ligand_molecule_name>  (1) 
MOL_0_isomer_0

$$$$
