MOL_0_isomer_0_conf_0
     RDKit          3D

 54 56  0  0  0  0  0  0  0  0999 V2000
   11.7549   -1.1662    1.1587 O   0  0  0  0  0  0  0  0  0  0  0  0
   11.1884   -0.8549   -0.1033 C   0  0  0  0  0  0  0  0  0  0  0  0
    9.8350   -0.2083    0.0700 C   0  0  0  0  0  0  0  0  0  0  0  0
    8.7222   -0.8344   -0.1849 N   0  0  0  0  0  0  0  0  0  0  0  0
    7.7439    0.0878    0.1076 N   0  0  0  0  0  0  0  0  0  0  0  0
    6.3718   -0.1890   -0.0328 C   0  0  0  0  0  0  0  0  0  0  0  0
    5.4884    0.7829    0.3042 N   0  0  0  0  0  0  0  0  0  0  0  0
    4.1616    0.5546    0.1761 C   0  0  0  0  0  0  0  0  0  0  0  0
    3.3099    1.5769    0.5346 O   0  0  0  0  0  0  0  0  0  0  0  0
    3.9477    2.8359    0.8670 C   0  0  1  0  0  0  0  0  0  0  0  0
    4.2177    3.6210   -0.4158 C   0  0  0  0  0  0  0  0  0  0  0  0
    3.0168    3.6321    1.7802 C   0  0  0  0  0  0  0  0  0  0  0  0
    2.7808    2.9630    2.9322 F   0  0  0  0  0  0  0  0  0  0  0  0
    1.8218    3.8651    1.1906 F   0  0  0  0  0  0  0  0  0  0  0  0
    3.5496    4.8299    2.1115 F   0  0  0  0  0  0  0  0  0  0  0  0
    3.6354   -0.6473   -0.2878 C   0  0  0  0  0  0  0  0  0  0  0  0
    2.1836   -0.9438   -0.4753 C   0  0  0  0  0  0  0  0  0  0  0  0
    1.8891   -1.9774   -1.0662 O   0  0  0  0  0  0  0  0  0  0  0  0
    1.2824   -0.0740    0.0962 N   0  0  0  0  0  0  0  0  0  0  0  0
   -0.1372   -0.0900    0.0205 C   0  0  0  0  0  0  0  0  0  0  0  0
   -0.8523    0.4698    1.0976 C   0  0  0  0  0  0  0  0  0  0  0  0
   -0.0407    1.1504    2.4633 Cl  0  0  0  0  0  0  0  0  0  0  0  0
   -2.1975    0.5165    1.2223 N   0  0  0  0  0  0  0  0  0  0  0  0
   -2.8975   -0.0194    0.2103 C   0  0  0  0  0  0  0  0  0  0  0  0
   -2.3100   -0.5614   -0.9215 C   0  0  0  0  0  0  0  0  0  0  0  0
   -0.9070   -0.5738   -1.0495 C   0  0  0  0  0  0  0  0  0  0  0  0
   -0.3602   -1.0626   -2.3607 C   0  0  0  0  0  0  0  0  0  0  0  0
    4.5530   -1.6464   -0.6348 C   0  0  0  0  0  0  0  0  0  0  0  0
    5.9202   -1.4193   -0.5051 C   0  0  0  0  0  0  0  0  0  0  0  0
    6.7541   -2.4102   -0.8518 F   0  0  0  0  0  0  0  0  0  0  0  0
    8.3244    1.2866    0.5530 C   0  0  0  0  0  0  0  0  0  0  0  0
    7.7950    2.3304    0.9047 O   0  0  0  0  0  0  0  0  0  0  0  0
    9.6845    1.0520    0.5176 N   0  0  0  0  0  0  0  0  0  0  0  0
   10.6857    2.0121    0.9460 C   0  0  0  0  0  0  0  0  0  0  0  0
   10.8786    1.9846    2.4542 C   0  0  0  0  0  0  0  0  0  0  0  0
   11.2052   -1.8709    1.5478 H   0  0  0  0  0  0  0  0  0  0  0  0
   11.8635   -0.1735   -0.6272 H   0  0  0  0  0  0  0  0  0  0  0  0
   11.0964   -1.7742   -0.6895 H   0  0  0  0  0  0  0  0  0  0  0  0
    4.8748    2.6854    1.4326 H   0  0  0  0  0  0  0  0  0  0  0  0
    4.6541    4.6005   -0.1974 H   0  0  0  0  0  0  0  0  0  0  0  0
    3.2932    3.7676   -0.9852 H   0  0  0  0  0  0  0  0  0  0  0  0
    4.9067    3.0813   -1.0732 H   0  0  0  0  0  0  0  0  0  0  0  0
    1.6553    0.5805    0.7817 H   0  0  0  0  0  0  0  0  0  0  0  0
   -3.9778    0.0082    0.3226 H   0  0  0  0  0  0  0  0  0  0  0  0
   -2.9453   -0.9498   -1.7134 H   0  0  0  0  0  0  0  0  0  0  0  0
   -1.0726   -0.8684   -3.1715 H   0  0  0  0  0  0  0  0  0  0  0  0
   -0.1854   -2.1414   -2.3277 H   0  0  0  0  0  0  0  0  0  0  0  0
    0.5526   -0.5289   -2.6403 H   0  0  0  0  0  0  0  0  0  0  0  0
    4.2185   -2.6106   -1.0108 H   0  0  0  0  0  0  0  0  0  0  0  0
   10.3572    3.0123    0.6432 H   0  0  0  0  0  0  0  0  0  0  0  0
   11.6358    1.7969    0.4497 H   0  0  0  0  0  0  0  0  0  0  0  0
   11.6379    2.7135    2.7537 H   0  0  0  0  0  0  0  0  0  0  0  0
   11.1994    0.9954    2.7949 H   0  0  0  0  0  0  0  0  0  0  0  0
    9.9468    2.2286    2.9749 H   0  0  0  0  0  0  0  0  0  0  0  0
 36  1  1  0
  1  2  1  0
  2 37  1  0
  2 38  1  0
  2  3  1  0
  3  4  2  0
  4  5  1  0
  5  6  1  0
  6  7  2  0
  7  8  1  0
  8  9  1  0
  9 10  1  0
 10 39  1  1
 10 11  1  0
 11 40  1  0
 11 41  1  0
 11 42  1  0
 10 12  1  0
 12 13  1  0
 12 14  1  0
 12 15  1  0
  8 16  2  0
 16 17  1  0
 17 18  2  0
 17 19  1  0
 19 43  1  0
 19 20  1  0
 20 21  2  0
 21 22  1  0
 21 23  1  0
 23 24  2  0
 24 44  1  0
 24 25  1  0
 25 45  1  0
 20 26  1  0
 25 26  2  0
 26 27  1  0
 27 46  1  0
 27 47  1  0
 27 48  1  0
 16 28  1  0
 28 49  1  0
  6 29  1  0
 28 29  2  0
 29 30  1  0
  5 31  1  0
 31 32  2  0
  3 33  1  0
 31 33  1  0
 33 34  1  0
 34 50  1  0
 34 51  1  0
 34 35  1  0
 35 52  1  0
 35 53  1  0
 35 54  1  0
M  END
>  <conformer_energy>  (1) 
110.47

>  <ligand_smiles>  (1) 
CCn1c(CO)nn(-c2nc(O[C@@H](C)C(F)(F)F)c(C(=O)Nc3c(C)ccnc3Cl)cc2F)c1=O

>  <ligand_conf_name>  (1) 
MOL_0_isomer_0_conf_0

>  <ligand_molecule_name>  (1) 
MOL_0_isomer_0

$$$$
