MOL_0_isomer_0_conf_0
     RDKit          3D

 44 46  0  0  0  0  0  0  0  0999 V2000
    2.5983    0.1468   -3.6976 O   0  0  0  0  0  0  0  0  0  0  0  0
    1.6751    0.3959   -2.6144 C   0  0  1  0  0  0  0  0  0  0  0  0
    0.2754    0.1194   -3.1417 C   0  0  1  0  0  0  0  0  0  0  0  0
    0.1472    0.5536   -4.4956 O   0  0  0  0  0  0  0  0  0  0  0  0
    0.1659   -1.4012   -2.9700 C   0  0  2  0  0  0  0  0  0  0  0  0
   -1.1694   -1.8542   -2.6178 N   0  0  0  0  0  0  0  0  0  0  0  0
   -1.6116   -2.2721   -1.3888 C   0  0  0  0  0  0  0  0  0  0  0  0
   -2.9163   -2.4905   -1.3738 N   0  0  0  0  0  0  0  0  0  0  0  0
   -3.3035   -2.3259   -2.6932 C   0  0  0  0  0  0  0  0  0  0  0  0
   -4.5435   -2.4584   -3.3402 C   0  0  0  0  0  0  0  0  0  0  0  0
   -5.6941   -2.8605   -2.6978 N   0  0  0  0  0  0  0  0  0  0  0  0
   -4.6160   -2.1737   -4.6582 N   0  0  0  0  0  0  0  0  0  0  0  0
   -3.4871   -1.7977   -5.2995 C   0  0  0  0  0  0  0  0  0  0  0  0
   -2.2506   -1.6536   -4.7877 N   0  0  0  0  0  0  0  0  0  0  0  0
   -2.2329   -1.9261   -3.4758 C   0  0  0  0  0  0  0  0  0  0  0  0
    1.0896   -1.7902   -1.9226 O   0  0  0  0  0  0  0  0  0  0  0  0
    1.8406   -0.6265   -1.4972 C   0  0  2  0  0  0  0  0  0  0  0  0
    1.3567   -0.1514   -0.1225 C   0  0  0  0  0  0  0  0  0  0  0  0
    0.0598    0.4335   -0.1995 O   0  0  0  0  0  0  0  0  0  0  0  0
   -0.7102    0.7598    1.2086 S   0  0  0  0  0  6  0  0  0  0  0  0
    0.3466    1.1434    2.1290 O   0  0  0  0  0  0  0  0  0  0  0  0
   -1.3687   -0.5132    1.5079 O   0  0  0  0  0  0  0  0  0  0  0  0
   -1.6706    1.9356    0.7382 N   0  0  0  0  0  2  0  0  0  0  0  0
   -2.9690    1.6491    0.8115 C   0  0  0  0  0  0  0  0  0  0  0  0
   -3.7801    2.1101    1.6137 O   0  0  0  0  0  0  0  0  0  0  0  0
   -3.4303    0.6107   -0.2003 C   0  0  0  0  0  0  0  0  0  0  0  0
   -3.7161   -0.6547    0.5107 N   0  0  0  0  0  4  0  0  0  0  0  0
    3.0101   -0.7281   -3.5714 H   0  0  0  0  0  0  0  0  0  0  0  0
    1.8235    1.4329   -2.3010 H   0  0  0  0  0  0  0  0  0  0  0  0
   -0.4853    0.6438   -2.5559 H   0  0  0  0  0  0  0  0  0  0  0  0
    1.0599    0.6007   -4.8520 H   0  0  0  0  0  0  0  0  0  0  0  0
    0.4547   -1.9394   -3.8806 H   0  0  0  0  0  0  0  0  0  0  0  0
   -0.9482   -2.3654   -0.5352 H   0  0  0  0  0  0  0  0  0  0  0  0
   -6.5053   -3.0020   -3.2840 H   0  0  0  0  0  0  0  0  0  0  0  0
   -5.6383   -3.2798   -1.7829 H   0  0  0  0  0  0  0  0  0  0  0  0
   -3.5917   -1.5847   -6.3598 H   0  0  0  0  0  0  0  0  0  0  0  0
    2.8830   -0.9503   -1.4011 H   0  0  0  0  0  0  0  0  0  0  0  0
    2.0558    0.5994    0.2619 H   0  0  0  0  0  0  0  0  0  0  0  0
    1.3256   -1.0045    0.5650 H   0  0  0  0  0  0  0  0  0  0  0  0
   -2.6895    0.4121   -0.9785 H   0  0  0  0  0  0  0  0  0  0  0  0
   -4.3600    0.9384   -0.6739 H   0  0  0  0  0  0  0  0  0  0  0  0
   -4.4928   -0.5504    1.1657 H   0  0  0  0  0  0  0  0  0  0  0  0
   -2.8715   -0.8717    1.0843 H   0  0  0  0  0  0  0  0  0  0  0  0
   -3.8223   -1.4541   -0.1298 H   0  0  0  0  0  0  0  0  0  0  0  0
 28  1  1  0
  1  2  1  0
  2 29  1  1
  2  3  1  0
  3 30  1  1
  3  4  1  0
  4 31  1  0
  3  5  1  0
  5 32  1  6
  5  6  1  0
  6  7  1  0
  7 33  1  0
  7  8  2  0
  8  9  1  0
  9 10  1  0
 10 11  1  0
 11 34  1  0
 11 35  1  0
 10 12  2  0
 12 13  1  0
 13 36  1  0
 13 14  2  0
  9 15  2  0
  6 15  1  0
 14 15  1  0
  5 16  1  0
  2 17  1  0
 16 17  1  0
 17 37  1  1
 17 18  1  0
 18 38  1  0
 18 39  1  0
 18 19  1  0
 19 20  1  0
 20 21  2  0
 20 22  2  0
 20 23  1  0
 23 24  1  0
 24 25  2  0
 24 26  1  0
 26 40  1  0
 26 41  1  0
 26 27  1  0
 27 42  1  0
 27 43  1  0
 27 44  1  0
M  CHG  2  23  -1  27   1
M  END
>  <conformer_energy>  (1) 
-41.80

>  <ligand_smiles>  (1) 
Nc1ncnc2c1ncn2[C@@H]1O[C@H](COS(=O)(=O)[N-]C(=O)C[NH3+])[C@@H](O)[C@H]1O

>  <ligand_conf_name>  (1) 
MOL_0_isomer_0_conf_0

>  <ligand_molecule_name>  (1) 
MOL_0_isomer_0

$$$$
