MOL_0_isomer_0_conf_0
     RDKit          3D

 15 16  0  0  0  0  0  0  0  0999 V2000
   -2.6025    1.9268    0.7153 N   0  0  0  0  0  0  0  0  0  0  0  0
   -1.3719    1.3748    0.8002 C   0  0  0  0  0  0  0  0  0  0  0  0
   -0.3376    2.0658    0.4169 N   0  0  0  0  0  0  0  0  0  0  0  0
    0.8700    1.3870    0.5542 C   0  0  0  0  0  0  0  0  0  0  0  0
    2.0540    1.8930    0.2276 N   0  0  0  0  0  0  0  0  0  0  0  0
    2.8573    0.8579    0.5487 N   0  0  0  0  0  0  0  0  0  0  0  0
    2.2918   -0.2639    1.0512 N   0  0  0  0  0  0  0  0  0  0  0  0
    0.9971    0.0910    1.0507 C   0  0  0  0  0  0  0  0  0  0  0  0
   -0.1666   -0.6439    1.4653 C   0  0  0  0  0  0  0  0  0  0  0  0
   -0.1825   -1.7850    1.9162 O   0  0  0  0  0  0  0  0  0  0  0  0
   -1.3241    0.0926    1.2999 N   0  0  0  0  0  0  0  0  0  0  0  0
   -2.6647    2.8709    0.3503 H   0  0  0  0  0  0  0  0  0  0  0  0
   -3.4568    1.4669    0.9883 H   0  0  0  0  0  0  0  0  0  0  0  0
    3.8644    0.9199    0.4159 H   0  0  0  0  0  0  0  0  0  0  0  0
   -2.1709   -0.3760    1.5754 H   0  0  0  0  0  0  0  0  0  0  0  0
 12  1  1  0
  1 13  1  0
  1  2  1  0
  2  3  2  0
  3  4  1  0
  4  5  2  0
  5  6  1  0
  6 14  1  0
  6  7  1  0
  4  8  1  0
  7  8  2  0
  8  9  1  0
  9 10  2  0
  2 11  1  0
  9 11  1  0
 11 15  1  0
M  END
>  <conformer_energy>  (1) 
-85.31

>  <ligand_smiles>  (1) 
Nc1nc2n[nH]nc2c(=O)[nH]1

>  <ligand_conf_name>  (1) 
MOL_0_isomer_0_conf_0

>  <ligand_molecule_name>  (1) 
MOL_0_isomer_0

$$$$
