MOL_0_isomer_0_conf_0
     RDKit          3D

 62 66  0  0  0  0  0  0  0  0999 V2000
    2.6462   -6.8668    9.5164 O   0  0  0  0  0  0  0  0  0  0  0  0
    3.1305   -6.4007    8.3260 C   0  0  0  0  0  0  0  0  0  0  0  0
    3.4692   -7.3119    7.3343 C   0  0  0  0  0  0  0  0  0  0  0  0
    3.9860   -6.8611    6.1084 C   0  0  0  0  0  0  0  0  0  0  0  0
    4.3804   -7.8180    5.0612 C   0  0  0  0  0  0  0  0  0  0  0  0
    3.4801   -8.7968    4.6005 C   0  0  0  0  0  0  0  0  0  0  0  0
    3.8548   -9.7071    3.6088 C   0  0  0  0  0  0  0  0  0  0  0  0
    5.1332   -9.6485    3.0730 C   0  0  0  0  0  0  0  0  0  0  0  0
    5.4929  -10.5218    2.1234 F   0  0  0  0  0  0  0  0  0  0  0  0
    6.0446   -8.6951    3.5076 C   0  0  0  0  0  0  0  0  0  0  0  0
    5.6692   -7.7833    4.4978 C   0  0  0  0  0  0  0  0  0  0  0  0
    4.1262   -5.4715    5.9085 C   0  0  0  0  0  0  0  0  0  0  0  0
    3.7631   -4.5514    6.9064 C   0  0  0  0  0  0  0  0  0  0  0  0
    3.8956   -3.0861    6.7050 C   0  0  0  0  0  0  0  0  0  0  0  0
    3.9827   -2.3589    7.6905 O   0  0  0  0  0  0  0  0  0  0  0  0
    3.8621   -2.6092    5.4133 N   0  0  0  0  0  0  0  0  0  0  0  0
    3.9412   -1.1937    5.1642 C   0  0  0  0  0  0  0  0  0  0  0  0
    4.1815   -0.9880    3.7022 C   0  0  0  0  0  0  0  0  0  0  0  0
    3.2696   -0.4821    2.8549 C   0  0  0  0  0  0  0  0  0  0  0  0
    3.5151   -0.2334    1.3918 C   0  0  1  0  0  0  0  0  0  0  0  0
    2.5200   -0.9688    0.6556 O   0  0  0  0  0  0  0  0  0  0  0  0
    1.6445   -0.0212   -0.0068 C   0  0  1  0  0  0  0  0  0  0  0  0
    0.2760   -0.4841    0.1153 N   0  0  0  0  0  0  0  0  0  0  0  0
   -0.2303   -1.3316    1.0631 C   0  0  0  0  0  0  0  0  0  0  0  0
   -1.5233   -1.5279    0.9096 N   0  0  0  0  0  0  0  0  0  0  0  0
   -1.8632   -0.7919   -0.2030 C   0  0  0  0  0  0  0  0  0  0  0  0
   -3.0765   -0.5993   -0.8758 C   0  0  0  0  0  0  0  0  0  0  0  0
   -4.3676   -1.2163   -0.4473 C   0  0  0  0  0  0  0  0  0  0  0  0
   -3.0845    0.2236   -1.9660 N   0  0  0  0  0  0  0  0  0  0  0  0
   -1.9206    0.7909   -2.3561 C   0  0  0  0  0  0  0  0  0  0  0  0
   -0.7024    0.6570   -1.7981 N   0  0  0  0  0  0  0  0  0  0  0  0
   -0.7530   -0.1401   -0.7184 C   0  0  0  0  0  0  0  0  0  0  0  0
    1.8860    1.3377    0.6586 C   0  0  2  0  0  0  0  0  0  0  0  0
    1.6297    2.4663   -0.1717 O   0  0  0  0  0  0  0  0  0  0  0  0
    3.3636    1.2403    0.9995 C   0  0  2  0  0  0  0  0  0  0  0  0
    4.1161    1.5443   -0.1906 O   0  0  0  0  0  0  0  0  0  0  0  0
    3.2854   -5.0314    8.1301 C   0  0  0  0  0  0  0  0  0  0  0  0
    2.9463   -4.2235    9.1880 O   0  0  0  0  0  0  0  0  0  0  0  0
    2.4876   -6.0614   10.0509 H   0  0  0  0  0  0  0  0  0  0  0  0
    3.3494   -8.3758    7.5333 H   0  0  0  0  0  0  0  0  0  0  0  0
    2.4717   -8.8512    5.0087 H   0  0  0  0  0  0  0  0  0  0  0  0
    3.1562  -10.4591    3.2551 H   0  0  0  0  0  0  0  0  0  0  0  0
    7.0413   -8.6713    3.0799 H   0  0  0  0  0  0  0  0  0  0  0  0
    6.3986   -7.0507    4.8401 H   0  0  0  0  0  0  0  0  0  0  0  0
    4.5383   -5.1215    4.9659 H   0  0  0  0  0  0  0  0  0  0  0  0
    3.6134   -3.2189    4.6472 H   0  0  0  0  0  0  0  0  0  0  0  0
    4.7596   -0.7604    5.7499 H   0  0  0  0  0  0  0  0  0  0  0  0
    3.0038   -0.7359    5.4997 H   0  0  0  0  0  0  0  0  0  0  0  0
    5.1751   -1.2487    3.3435 H   0  0  0  0  0  0  0  0  0  0  0  0
    2.2821   -0.2282    3.2369 H   0  0  0  0  0  0  0  0  0  0  0  0
    4.4954   -0.6213    1.0887 H   0  0  0  0  0  0  0  0  0  0  0  0
    1.8990   -0.0136   -1.0735 H   0  0  0  0  0  0  0  0  0  0  0  0
    0.3825   -1.7803    1.8344 H   0  0  0  0  0  0  0  0  0  0  0  0
   -5.1094   -1.1642   -1.2511 H   0  0  0  0  0  0  0  0  0  0  0  0
   -4.7611   -0.6879    0.4257 H   0  0  0  0  0  0  0  0  0  0  0  0
   -4.2210   -2.2684   -0.1879 H   0  0  0  0  0  0  0  0  0  0  0  0
   -1.9770    1.4344   -3.2275 H   0  0  0  0  0  0  0  0  0  0  0  0
    1.2881    1.4381    1.5726 H   0  0  0  0  0  0  0  0  0  0  0  0
    2.3872    2.5235   -0.7907 H   0  0  0  0  0  0  0  0  0  0  0  0
    3.6740    1.9523    1.7707 H   0  0  0  0  0  0  0  0  0  0  0  0
    5.0619    1.4229    0.0136 H   0  0  0  0  0  0  0  0  0  0  0  0
    3.2589   -3.3151    8.9737 H   0  0  0  0  0  0  0  0  0  0  0  0
 39  1  1  0
  1  2  1  0
  2  3  2  0
  3 40  1  0
  3  4  1  0
  4  5  1  0
  5  6  2  0
  6 41  1  0
  6  7  1  0
  7 42  1  0
  7  8  2  0
  8  9  1  0
  8 10  1  0
 10 43  1  0
  5 11  1  0
 10 11  2  0
 11 44  1  0
  4 12  2  0
 12 45  1  0
 12 13  1  0
 13 14  1  0
 14 15  2  0
 14 16  1  0
 16 46  1  0
 16 17  1  0
 17 47  1  0
 17 48  1  0
 17 18  1  0
 18 49  1  0
 18 19  2  0
 19 50  1  0
 19 20  1  0
 20 51  1  6
 20 21  1  0
 21 22  1  0
 22 52  1  6
 22 23  1  0
 23 24  1  0
 24 53  1  0
 24 25  2  0
 25 26  1  0
 26 27  1  0
 27 28  1  0
 28 54  1  0
 28 55  1  0
 28 56  1  0
 27 29  2  0
 29 30  1  0
 30 57  1  0
 30 31  2  0
 26 32  2  0
 23 32  1  0
 31 32  1  0
 22 33  1  0
 33 58  1  1
 33 34  1  0
 34 59  1  0
 20 35  1  0
 33 35  1  0
 35 60  1  1
 35 36  1  0
 36 61  1  0
  2 37  1  0
 13 37  2  0
 37 38  1  0
 38 62  1  0
M  END
>  <conformer_energy>  (1) 
98.18

>  <ligand_smiles>  (1) 
Cc1ncnc2c1ncn2[C@@H]1O[C@H](/C=C/CNC(=O)c2cc(-c3ccc(F)cc3)cc(O)c2O)[C@@H](O)[C@H]1O

>  <ligand_conf_name>  (1) 
MOL_0_isomer_0_conf_0

>  <ligand_molecule_name>  (1) 
MOL_0_isomer_0

$$$$
