MOL_0_isomer_0_conf_0
     RDKit          3D

 36 38  0  0  0  0  0  0  0  0999 V2000
    6.8572   -3.7667    1.4628 C   0  0  0  0  0  0  0  0  0  0  0  0
    5.7357   -2.9712    1.1998 C   0  0  0  0  0  0  0  0  0  0  0  0
    4.6524   -3.4879    0.4865 C   0  0  0  0  0  0  0  0  0  0  0  0
    3.4937   -2.7522    0.1825 N   0  0  0  0  0  0  0  0  0  0  0  0
    3.2008   -1.4576    0.5104 C   0  0  0  0  0  0  0  0  0  0  0  0
    3.8887   -0.6725    1.1418 O   0  0  0  0  0  0  0  0  0  0  0  0
    1.9766   -1.1609   -0.0010 O   0  0  0  0  0  0  0  0  0  0  0  0
    1.4862    0.1561    0.3139 C   0  0  2  0  0  0  0  0  0  0  0  0
   -0.0069    0.0913    0.1891 C   0  0  0  0  0  0  0  0  0  0  0  0
   -0.8907    0.6669    0.9813 N   0  0  0  0  0  0  0  0  0  0  0  0
   -2.1219    0.3372    0.4694 C   0  0  0  0  0  0  0  0  0  0  0  0
   -3.4036    0.6816    0.9211 C   0  0  0  0  0  0  0  0  0  0  0  0
   -4.5151    0.2108    0.2103 C   0  0  0  0  0  0  0  0  0  0  0  0
   -4.3527   -0.5859   -0.9262 C   0  0  0  0  0  0  0  0  0  0  0  0
   -3.0806   -0.9398   -1.3919 C   0  0  0  0  0  0  0  0  0  0  0  0
   -1.9915   -0.4564   -0.6640 C   0  0  0  0  0  0  0  0  0  0  0  0
   -0.6381   -0.5970   -0.8210 N   0  0  0  0  0  0  0  0  0  0  0  0
    2.0620    1.1817   -0.6578 C   0  0  0  0  0  0  0  0  0  0  0  0
    4.7063   -4.8138    0.0393 C   0  0  0  0  0  0  0  0  0  0  0  0
    5.8273   -5.6121    0.3005 C   0  0  0  0  0  0  0  0  0  0  0  0
    5.8089   -7.2364   -0.2908 Cl  0  0  0  0  0  0  0  0  0  0  0  0
    6.9072   -5.0874    1.0147 C   0  0  0  0  0  0  0  0  0  0  0  0
    8.3216   -6.0101    1.3735 Cl  0  0  0  0  0  0  0  0  0  0  0  0
    7.6891   -3.3426    2.0212 H   0  0  0  0  0  0  0  0  0  0  0  0
    5.7439   -1.9496    1.5701 H   0  0  0  0  0  0  0  0  0  0  0  0
    2.7592   -3.2142   -0.3351 H   0  0  0  0  0  0  0  0  0  0  0  0
    1.7313    0.4227    1.3498 H   0  0  0  0  0  0  0  0  0  0  0  0
   -3.5211    1.3000    1.8038 H   0  0  0  0  0  0  0  0  0  0  0  0
   -5.5150    0.4704    0.5498 H   0  0  0  0  0  0  0  0  0  0  0  0
   -5.2332   -0.9383   -1.4601 H   0  0  0  0  0  0  0  0  0  0  0  0
   -2.9566   -1.5577   -2.2742 H   0  0  0  0  0  0  0  0  0  0  0  0
   -0.1730   -1.1232   -1.5457 H   0  0  0  0  0  0  0  0  0  0  0  0
    3.1502    1.2481   -0.5597 H   0  0  0  0  0  0  0  0  0  0  0  0
    1.6402    2.1770   -0.4828 H   0  0  0  0  0  0  0  0  0  0  0  0
    1.8593    0.9002   -1.6978 H   0  0  0  0  0  0  0  0  0  0  0  0
    3.8749   -5.2398   -0.5173 H   0  0  0  0  0  0  0  0  0  0  0  0
 24  1  1  0
  1  2  2  0
  2 25  1  0
  2  3  1  0
  3  4  1  0
  4 26  1  0
  4  5  1  0
  5  6  2  0
  5  7  1  0
  7  8  1  0
  8 27  1  1
  8  9  1  0
  9 10  2  0
 10 11  1  0
 11 12  2  0
 12 28  1  0
 12 13  1  0
 13 29  1  0
 13 14  2  0
 14 30  1  0
 14 15  1  0
 15 31  1  0
 11 16  1  0
 15 16  2  0
  9 17  1  0
 16 17  1  0
 17 32  1  0
  8 18  1  0
 18 33  1  0
 18 34  1  0
 18 35  1  0
  3 19  2  0
 19 36  1  0
 19 20  1  0
 20 21  1  0
  1 22  1  0
 20 22  2  0
 22 23  1  0
M  END
>  <conformer_energy>  (1) 
-19.78

>  <ligand_smiles>  (1) 
C[C@H](OC(=O)Nc1ccc(Cl)c(Cl)c1)c1nc2ccccc2[nH]1

>  <ligand_conf_name>  (1) 
MOL_0_isomer_0_conf_0

>  <ligand_molecule_name>  (1) 
MOL_0_isomer_0

$$$$
