MOL_0_isomer_0_conf_0
     RDKit          3D

 15 15  0  0  0  0  0  0  0  0999 V2000
    3.6255    0.1593    1.0703 C   0  0  0  0  0  0  0  0  0  0  0  0
    2.2300    0.1501    1.1296 C   0  0  0  0  0  0  0  0  0  0  0  0
    1.4717   -0.0217   -0.0360 C   0  0  0  0  0  0  0  0  0  0  0  0
   -0.0275    0.0022    0.0238 C   0  0  0  0  0  0  0  0  0  0  0  0
    2.1297   -0.1591   -1.2653 C   0  0  0  0  0  0  0  0  0  0  0  0
    3.5252   -0.1500   -1.3253 C   0  0  0  0  0  0  0  0  0  0  0  0
    4.2670    0.0072   -0.1568 C   0  0  0  0  0  0  0  0  0  0  0  0
    5.9862    0.0197   -0.2305 Cl  0  0  0  0  0  0  0  0  0  0  0  0
    4.2031    0.2879    1.9815 H   0  0  0  0  0  0  0  0  0  0  0  0
    1.7380    0.2770    2.0916 H   0  0  0  0  0  0  0  0  0  0  0  0
   -0.3865   -0.3936    0.9796 H   0  0  0  0  0  0  0  0  0  0  0  0
   -0.4597   -0.6192   -0.7676 H   0  0  0  0  0  0  0  0  0  0  0  0
   -0.3900    1.0280   -0.0935 H   0  0  0  0  0  0  0  0  0  0  0  0
    1.5588   -0.2750   -2.1842 H   0  0  0  0  0  0  0  0  0  0  0  0
    4.0244   -0.2626   -2.2837 H   0  0  0  0  0  0  0  0  0  0  0  0
  9  1  1  0
  1  2  2  0
  2 10  1  0
  2  3  1  0
  3  4  1  0
  4 11  1  0
  4 12  1  0
  4 13  1  0
  3  5  2  0
  5 14  1  0
  5  6  1  0
  6 15  1  0
  1  7  1  0
  6  7  2  0
  7  8  1  0
M  END
>  <conformer_energy>  (1) 
17.25

>  <ligand_smiles>  (1) 
Cc1ccc(Cl)cc1

>  <ligand_conf_name>  (1) 
MOL_0_isomer_0_conf_0

>  <ligand_molecule_name>  (1) 
MOL_0_isomer_0

$$$$
