MOL_0_isomer_0_conf_0
     RDKit          3D

 40 42  0  0  0  0  0  0  0  0999 V2000
    1.1765    0.6250   -3.7008 O   0  0  0  0  0  0  0  0  0  0  0  0
    1.5326   -0.2586   -2.6315 C   0  0  1  0  0  0  0  0  0  0  0  0
    2.7497   -1.0723   -3.0632 C   0  0  0  0  0  0  0  0  0  0  0  0
    3.8565   -0.0450   -2.9934 N   0  0  2  0  0  4  0  0  0  0  0  0
    5.2488   -0.5820   -2.9168 C   0  0  0  0  0  0  0  0  0  0  0  0
    5.6706   -1.2927   -4.1503 C   0  0  0  0  0  0  0  0  0  0  0  0
    6.3866   -2.4711   -4.2674 C   0  0  0  0  0  0  0  0  0  0  0  0
    6.5693   -2.7340   -5.6071 N   0  0  0  0  0  0  0  0  0  0  0  0
    5.9719   -1.7547   -6.3602 C   0  0  0  0  0  0  0  0  0  0  0  0
    5.8522   -1.5529   -7.7248 C   0  0  0  0  0  0  0  0  0  0  0  0
    6.3699   -2.3859   -8.6781 N   0  0  0  0  0  0  0  0  0  0  0  0
    5.1771   -0.4632   -8.1275 N   0  0  0  0  0  0  0  0  0  0  0  0
    4.6620    0.3644   -7.2005 C   0  0  0  0  0  0  0  0  0  0  0  0
    4.7233    0.2468   -5.8601 N   0  0  0  0  0  0  0  0  0  0  0  0
    5.4135   -0.8494   -5.4751 C   0  0  0  0  0  0  0  0  0  0  0  0
    3.4734    0.9720   -1.9488 C   0  0  0  0  0  0  0  0  0  0  0  0
    2.0665    0.5827   -1.4718 C   0  0  2  0  0  0  0  0  0  0  0  0
    2.1451   -0.1490   -0.1227 C   0  0  0  0  0  0  0  0  0  0  0  0
    0.4954   -0.6521    0.4468 S   0  0  0  0  0  0  0  0  0  0  0  0
    0.9349   -1.2687    2.0934 C   0  0  0  0  0  0  0  0  0  0  0  0
    0.2597    0.9269   -3.5429 H   0  0  0  0  0  0  0  0  0  0  0  0
    0.6742   -0.8955   -2.4072 H   0  0  0  0  0  0  0  0  0  0  0  0
    2.6883   -1.4354   -4.0928 H   0  0  0  0  0  0  0  0  0  0  0  0
    2.9882   -1.8808   -2.3658 H   0  0  0  0  0  0  0  0  0  0  0  0
    3.7976    0.4464   -3.9076 H   0  0  0  0  0  0  0  0  0  0  0  0
    5.9102    0.2770   -2.7543 H   0  0  0  0  0  0  0  0  0  0  0  0
    5.2996   -1.2306   -2.0352 H   0  0  0  0  0  0  0  0  0  0  0  0
    6.7980   -3.1443   -3.5244 H   0  0  0  0  0  0  0  0  0  0  0  0
    7.0672   -3.5285   -5.9894 H   0  0  0  0  0  0  0  0  0  0  0  0
    6.2135   -2.1094   -9.6394 H   0  0  0  0  0  0  0  0  0  0  0  0
    6.9062   -3.2116   -8.4821 H   0  0  0  0  0  0  0  0  0  0  0  0
    4.1303    1.2302   -7.5856 H   0  0  0  0  0  0  0  0  0  0  0  0
    3.4793    1.9468   -2.4480 H   0  0  0  0  0  0  0  0  0  0  0  0
    4.2209    0.9664   -1.1489 H   0  0  0  0  0  0  0  0  0  0  0  0
    1.4758    1.4994   -1.3446 H   0  0  0  0  0  0  0  0  0  0  0  0
    2.5801    0.5216    0.6266 H   0  0  0  0  0  0  0  0  0  0  0  0
    2.7806   -1.0379   -0.1867 H   0  0  0  0  0  0  0  0  0  0  0  0
    0.0339   -1.6343    2.5928 H   0  0  0  0  0  0  0  0  0  0  0  0
    1.3666   -0.4659    2.6966 H   0  0  0  0  0  0  0  0  0  0  0  0
    1.6476   -2.0934    2.0114 H   0  0  0  0  0  0  0  0  0  0  0  0
 21  1  1  0
  1  2  1  0
  2 22  1  1
  2  3  1  0
  3 23  1  0
  3 24  1  0
  3  4  1  0
  4 25  1  6
  4  5  1  0
  5 26  1  0
  5 27  1  0
  5  6  1  0
  6  7  2  0
  7 28  1  0
  7  8  1  0
  8 29  1  0
  8  9  1  0
  9 10  1  0
 10 11  1  0
 11 30  1  0
 11 31  1  0
 10 12  2  0
 12 13  1  0
 13 32  1  0
 13 14  2  0
  6 15  1  0
  9 15  2  0
 14 15  1  0
  4 16  1  0
 16 33  1  0
 16 34  1  0
  2 17  1  0
 16 17  1  0
 17 35  1  1
 17 18  1  0
 18 36  1  0
 18 37  1  0
 18 19  1  0
 19 20  1  0
 20 38  1  0
 20 39  1  0
 20 40  1  0
M  CHG  1   4   1
M  END
>  <conformer_energy>  (1) 
-49.78

>  <ligand_smiles>  (1) 
CSC[C@H]1C[N@@H+](Cc2c[nH]c3c(N)ncnc23)C[C@@H]1O

>  <ligand_conf_name>  (1) 
MOL_0_isomer_0_conf_0

>  <ligand_molecule_name>  (1) 
MOL_0_isomer_0

$$$$
