MOL_0_isomer_0_conf_0
     RDKit          3D

 85 88  0  0  0  0  0  0  0  0999 V2000
    5.5708   -3.1212  -10.6225 O   0  0  0  0  0  0  0  0  0  0  0  0
    4.7857   -3.3485   -9.4226 C   0  0  1  0  0  0  0  0  0  0  0  0
    5.5670   -2.7669   -8.2147 C   0  0  2  0  0  0  0  0  0  0  0  0
    6.7794   -3.5592   -7.7695 N   0  0  0  0  0  0  0  0  0  0  0  0
    7.1857   -4.5972   -8.4106 C   0  0  0  0  0  0  0  0  0  0  0  0
    8.3143   -5.4802   -7.9191 C   0  0  0  0  0  0  0  0  0  0  0  0
    8.4834   -6.7663   -8.5537 C   0  0  0  0  0  0  0  0  0  0  0  0
    7.7631   -7.2043   -9.5186 O   0  0  0  0  0  1  0  0  0  0  0  0
    9.5086   -7.5726   -8.0253 C   0  0  0  0  0  0  0  0  0  0  0  0
    9.8711   -8.9085   -8.6147 C   0  0  0  0  0  0  0  0  0  0  0  0
   10.2095   -7.1753   -6.9639 N   0  0  0  0  0  4  0  0  0  0  0  0
   10.0326   -6.0084   -6.3639 C   0  0  0  0  0  0  0  0  0  0  0  0
    9.1411   -5.0740   -6.8461 C   0  0  0  0  0  0  0  0  0  0  0  0
    9.2006   -3.6840   -6.2450 C   0  0  0  0  0  0  0  0  0  0  0  0
   10.0164   -3.6358   -5.0690 O   0  0  0  0  0  0  0  0  0  0  0  0
   11.6012   -3.3600   -5.1690 P   0  0  1  0  0  5  0  0  0  0  0  0
   12.1810   -3.4132   -3.7802 O   0  0  0  0  0  0  0  0  0  0  0  0
   12.2081   -4.1788   -6.2735 O   0  0  0  0  0  1  0  0  0  0  0  0
   11.5946   -1.7966   -5.5592 O   0  0  0  0  0  0  0  0  0  0  0  0
    4.6504   -2.5598   -6.9696 C   0  0  1  0  0  0  0  0  0  0  0  0
    5.3460   -1.7604   -5.9447 N   0  0  0  0  0  0  0  0  0  0  0  0
    5.8408   -2.2520   -4.7667 C   0  0  0  0  0  0  0  0  0  0  0  0
    5.7066   -3.4025   -4.3559 O   0  0  0  0  0  0  0  0  0  0  0  0
    6.6180   -1.2401   -3.9645 C   0  0  0  0  0  0  0  0  0  0  0  0
    3.2792   -1.9178   -7.3369 C   0  0  1  0  0  0  0  0  0  0  0  0
    3.4309   -0.5533   -7.7038 O   0  0  0  0  0  0  0  0  0  0  0  0
    2.6993    0.5877   -6.7850 P   0  0  1  0  0  5  0  0  0  0  0  0
    2.8974    1.8984   -7.5153 O   0  0  0  0  0  0  0  0  0  0  0  0
    1.3186    0.0696   -6.4300 O   0  0  0  0  0  1  0  0  0  0  0  0
    3.6628    0.5355   -5.5082 O   0  0  0  0  0  0  0  0  0  0  0  0
    3.6583    1.3394   -4.1275 P   0  0  1  0  0  5  0  0  0  0  0  0
    4.9620    2.0971   -3.9632 O   0  0  0  0  0  0  0  0  0  0  0  0
    2.3468    1.9976   -3.7541 O   0  0  0  0  0  1  0  0  0  0  0  0
    3.8169    0.0503   -3.1337 O   0  0  0  0  0  0  0  0  0  0  0  0
    2.7441   -0.8750   -3.1175 C   0  0  0  0  0  0  0  0  0  0  0  0
    2.5879   -1.3875   -1.6906 C   0  0  1  0  0  0  0  0  0  0  0  0
    2.2988   -0.2976   -0.7676 O   0  0  0  0  0  0  0  0  0  0  0  0
    1.1797   -0.6631    0.0582 C   0  0  1  0  0  0  0  0  0  0  0  0
   -0.0463    0.0518   -0.3055 N   0  0  0  0  0  0  0  0  0  0  0  0
   -0.1199    0.8628   -1.4177 C   0  0  0  0  0  0  0  0  0  0  0  0
   -1.2546    1.4592   -1.7843 C   0  0  0  0  0  0  0  0  0  0  0  0
   -2.4551    1.2720   -0.9637 C   0  0  0  0  0  0  0  0  0  0  0  0
   -3.5473    1.7761   -1.2384 O   0  0  0  0  0  0  0  0  0  0  0  0
   -2.2941    0.4947    0.1477 N   0  0  0  0  0  0  0  0  0  0  0  0
   -1.1315   -0.1114    0.5436 C   0  0  0  0  0  0  0  0  0  0  0  0
   -1.1000   -0.7509    1.5989 O   0  0  0  0  0  0  0  0  0  0  0  0
    1.0840   -2.1929   -0.0601 C   0  0  2  0  0  0  0  0  0  0  0  0
    2.0751   -2.8398    0.7855 O   0  0  0  0  0  0  0  0  0  0  0  0
    1.4553   -2.4020   -1.5231 C   0  0  2  0  0  0  0  0  0  0  0  0
    1.8205   -3.7558   -1.7721 O   0  0  0  0  0  0  0  0  0  0  0  0
    2.6542   -2.7052   -8.3619 O   0  0  0  0  0  0  0  0  0  0  0  0
    3.3942   -2.7138   -9.5904 C   0  0  2  0  0  0  0  0  0  0  0  0
    2.6748   -3.5653  -10.7020 C   0  0  0  0  0  0  0  0  0  0  0  0
    3.3344   -3.6596  -11.7968 O   0  0  0  0  0  0  0  0  0  0  0  0
    1.5400   -4.0789  -10.4603 O   0  0  0  0  0  1  0  0  0  0  0  0
    4.9747   -3.4342  -11.3501 H   0  0  0  0  0  0  0  0  0  0  0  0
    4.6604   -4.4333   -9.2983 H   0  0  0  0  0  0  0  0  0  0  0  0
    5.9703   -1.7910   -8.5212 H   0  0  0  0  0  0  0  0  0  0  0  0
    6.7087   -4.9408   -9.3352 H   0  0  0  0  0  0  0  0  0  0  0  0
   10.6128   -9.4302   -7.9950 H   0  0  0  0  0  0  0  0  0  0  0  0
   10.3070   -8.7645   -9.6119 H   0  0  0  0  0  0  0  0  0  0  0  0
    9.0012   -9.5657   -8.6824 H   0  0  0  0  0  0  0  0  0  0  0  0
   10.9525   -7.7574   -6.6007 H   0  0  0  0  0  0  0  0  0  0  0  0
   10.6754   -5.8452   -5.5097 H   0  0  0  0  0  0  0  0  0  0  0  0
    8.2111   -3.3815   -5.9010 H   0  0  0  0  0  0  0  0  0  0  0  0
    9.5770   -2.9612   -6.9839 H   0  0  0  0  0  0  0  0  0  0  0  0
   11.4376   -1.3570   -4.7026 H   0  0  0  0  0  0  0  0  0  0  0  0
    4.4506   -3.5551   -6.5477 H   0  0  0  0  0  0  0  0  0  0  0  0
    5.3764   -0.7580   -6.1219 H   0  0  0  0  0  0  0  0  0  0  0  0
    6.5039   -0.2303   -4.3618 H   0  0  0  0  0  0  0  0  0  0  0  0
    7.6809   -1.5007   -3.9891 H   0  0  0  0  0  0  0  0  0  0  0  0
    6.2663   -1.2456   -2.9241 H   0  0  0  0  0  0  0  0  0  0  0  0
    2.6381   -1.9821   -6.4517 H   0  0  0  0  0  0  0  0  0  0  0  0
    1.8151   -0.4094   -3.4539 H   0  0  0  0  0  0  0  0  0  0  0  0
    2.9725   -1.7040   -3.7974 H   0  0  0  0  0  0  0  0  0  0  0  0
    3.5446   -1.8132   -1.3700 H   0  0  0  0  0  0  0  0  0  0  0  0
    1.4369   -0.3754    1.0826 H   0  0  0  0  0  0  0  0  0  0  0  0
    0.7768    1.0226   -2.0141 H   0  0  0  0  0  0  0  0  0  0  0  0
   -1.3062    2.0846   -2.6677 H   0  0  0  0  0  0  0  0  0  0  0  0
   -3.1022    0.3608    0.7306 H   0  0  0  0  0  0  0  0  0  0  0  0
    0.1163   -2.6322    0.2024 H   0  0  0  0  0  0  0  0  0  0  0  0
    2.8915   -2.3008    0.7193 H   0  0  0  0  0  0  0  0  0  0  0  0
    0.6083   -2.1482   -2.1713 H   0  0  0  0  0  0  0  0  0  0  0  0
    2.5201   -3.9849   -1.1305 H   0  0  0  0  0  0  0  0  0  0  0  0
    3.4669   -1.6928   -9.9880 H   0  0  0  0  0  0  0  0  0  0  0  0
 56  1  1  0
  1  2  1  0
  2 57  1  1
  2  3  1  0
  3 58  1  6
  3  4  1  0
  4  5  2  0
  5 59  1  0
  5  6  1  0
  6  7  2  0
  7  8  1  0
  7  9  1  0
  9 10  1  0
 10 60  1  0
 10 61  1  0
 10 62  1  0
  9 11  2  0
 11 63  1  0
 11 12  1  0
 12 64  1  0
  6 13  1  0
 12 13  2  0
 13 14  1  0
 14 65  1  0
 14 66  1  0
 14 15  1  0
 15 16  1  0
 16 17  2  0
 16 18  1  6
 16 19  1  0
 19 67  1  0
  3 20  1  0
 20 68  1  1
 20 21  1  0
 21 69  1  0
 21 22  1  0
 22 23  2  0
 22 24  1  0
 24 70  1  0
 24 71  1  0
 24 72  1  0
 20 25  1  0
 25 73  1  1
 25 26  1  0
 26 27  1  0
 27 28  2  0
 27 29  1  1
 27 30  1  0
 30 31  1  0
 31 32  2  0
 31 33  1  1
 31 34  1  0
 34 35  1  0
 35 74  1  0
 35 75  1  0
 35 36  1  0
 36 76  1  1
 36 37  1  0
 37 38  1  0
 38 77  1  1
 38 39  1  0
 39 40  1  0
 40 78  1  0
 40 41  2  0
 41 79  1  0
 41 42  1  0
 42 43  2  0
 42 44  1  0
 44 80  1  0
 39 45  1  0
 44 45  1  0
 45 46  2  0
 38 47  1  0
 47 81  1  6
 47 48  1  0
 48 82  1  0
 36 49  1  0
 47 49  1  0
 49 83  1  6
 49 50  1  0
 50 84  1  0
 25 51  1  0
  2 52  1  0
 51 52  1  0
 52 85  1  6
 52 53  1  0
 53 54  2  0
 53 55  1  0
M  CHG  6   8  -1  11   1  18  -1  29  -1  33  -1  55  -1
M  END
>  <conformer_energy>  (1) 
-104.13

>  <ligand_smiles>  (1) 
CC(=O)N[C@H]1[C@@H](O[P@@](=O)([O-])O[P@@](=O)([O-])OC[C@H]2O[C@@H](n3ccc(=O)[nH]c3=O)[C@H](O)[C@@H]2O)O[C@H](C(=O)[O-])[C@@H](O)[C@@H]1/N=C/c1c(CO[P@@](=O)([O-])O)c[nH+]c(C)c1[O-]

>  <ligand_conf_name>  (1) 
MOL_0_isomer_0_conf_0

>  <ligand_molecule_name>  (1) 
MOL_0_isomer_0

$$$$
