MOL_0_isomer_0_conf_0
     RDKit          3D

 40 43  0  0  0  0  0  0  0  0999 V2000
    2.2845   -0.4239   -0.9341 C   0  0  0  0  0  0  0  0  0  0  0  0
    1.4531   -0.4688    0.2158 C   0  0  0  0  0  0  0  0  0  0  0  0
    0.1098   -0.6818    0.2075 N   0  0  0  0  0  0  0  0  0  0  0  0
   -0.6514   -0.5525    1.4627 C   0  0  0  0  0  0  0  0  0  0  0  0
   -1.8481   -1.5114    1.4844 C   0  0  0  0  0  0  0  0  0  0  0  0
   -2.6719   -1.3645    0.3187 O   0  0  0  0  0  0  0  0  0  0  0  0
   -1.9015   -1.6676   -0.8529 C   0  0  0  0  0  0  0  0  0  0  0  0
   -0.6971   -0.7160   -1.0264 C   0  0  1  0  0  0  0  0  0  0  0  0
   -1.1597    0.6970   -1.3919 C   0  0  0  0  0  0  0  0  0  0  0  0
    2.1807   -0.2828    1.3236 N   0  0  0  0  0  0  0  0  0  0  0  0
    3.4301   -0.0954    0.8781 N   0  0  0  0  0  0  0  0  0  0  0  0
    3.5613   -0.1899   -0.4725 C   0  0  0  0  0  0  0  0  0  0  0  0
    4.8140   -0.0797   -1.1541 C   0  0  0  0  0  0  0  0  0  0  0  0
    4.9780   -0.2645   -2.3544 O   0  0  0  0  0  0  0  0  0  0  0  0
    5.8787    0.2399   -0.3479 N   0  0  0  0  0  0  0  0  0  0  0  0
    5.7599    0.6656    1.0361 C   0  0  1  0  0  0  0  0  0  0  0  0
    5.6510    2.1963    1.1566 C   0  0  0  0  0  0  0  0  0  0  0  0
    4.5149    2.4752    2.1372 C   0  0  0  0  0  0  0  0  0  0  0  0
    4.2871    1.1585    2.8650 C   0  0  0  0  0  0  0  0  0  0  0  0
    4.5418    0.0997    1.7926 C   0  0  1  0  0  0  0  0  0  0  0  0
    2.0145   -0.5510   -1.9715 H   0  0  0  0  0  0  0  0  0  0  0  0
   -1.0076    0.4809    1.5493 H   0  0  0  0  0  0  0  0  0  0  0  0
   -0.0384   -0.7652    2.3461 H   0  0  0  0  0  0  0  0  0  0  0  0
   -1.5137   -2.5535    1.5564 H   0  0  0  0  0  0  0  0  0  0  0  0
   -2.4722   -1.3044    2.3597 H   0  0  0  0  0  0  0  0  0  0  0  0
   -1.5612   -2.7089   -0.7897 H   0  0  0  0  0  0  0  0  0  0  0  0
   -2.5705   -1.5977   -1.7172 H   0  0  0  0  0  0  0  0  0  0  0  0
   -0.1142   -1.1137   -1.8648 H   0  0  0  0  0  0  0  0  0  0  0  0
   -0.3045    1.3686   -1.5226 H   0  0  0  0  0  0  0  0  0  0  0  0
   -1.7229    0.6859   -2.3311 H   0  0  0  0  0  0  0  0  0  0  0  0
   -1.8052    1.1299   -0.6208 H   0  0  0  0  0  0  0  0  0  0  0  0
    6.7667    0.3041   -0.8313 H   0  0  0  0  0  0  0  0  0  0  0  0
    6.6799    0.3430    1.5396 H   0  0  0  0  0  0  0  0  0  0  0  0
    5.4595    2.6894    0.1969 H   0  0  0  0  0  0  0  0  0  0  0  0
    6.5933    2.6023    1.5431 H   0  0  0  0  0  0  0  0  0  0  0  0
    3.6115    2.7620    1.5857 H   0  0  0  0  0  0  0  0  0  0  0  0
    4.7553    3.2910    2.8255 H   0  0  0  0  0  0  0  0  0  0  0  0
    3.2910    1.1093    3.3146 H   0  0  0  0  0  0  0  0  0  0  0  0
    5.0247    1.0527    3.6702 H   0  0  0  0  0  0  0  0  0  0  0  0
    4.7539   -0.8839    2.2265 H   0  0  0  0  0  0  0  0  0  0  0  0
 21  1  1  0
  1  2  1  0
  2  3  1  0
  3  4  1  0
  4 22  1  0
  4 23  1  0
  4  5  1  0
  5 24  1  0
  5 25  1  0
  5  6  1  0
  6  7  1  0
  7 26  1  0
  7 27  1  0
  3  8  1  0
  7  8  1  0
  8 28  1  6
  8  9  1  0
  9 29  1  0
  9 30  1  0
  9 31  1  0
  2 10  2  0
 10 11  1  0
  1 12  2  0
 11 12  1  0
 12 13  1  0
 13 14  2  0
 13 15  1  0
 15 32  1  0
 15 16  1  0
 16 33  1  1
 16 17  1  0
 17 34  1  0
 17 35  1  0
 17 18  1  0
 18 36  1  0
 18 37  1  0
 18 19  1  0
 19 38  1  0
 19 39  1  0
 11 20  1  0
 16 20  1  0
 19 20  1  0
 20 40  1  1
M  END
>  <conformer_energy>  (1) 
-6.71

>  <ligand_smiles>  (1) 
C[C@@H]1COCCN1c1cc2n(n1)[C@@H]1CCC[C@@H]1NC2=O

>  <ligand_conf_name>  (1) 
MOL_0_isomer_0_conf_0

>  <ligand_molecule_name>  (1) 
MOL_0_isomer_0

$$$$
