MOL_0_isomer_0_conf_0
     RDKit          3D

 32 33  0  0  0  0  0  0  0  0999 V2000
   -0.5268    0.1510    1.2373 O   0  0  0  0  0  0  0  0  0  0  0  0
   -0.0629   -0.0410   -0.1115 C   0  0  1  0  0  0  0  0  0  0  0  0
   -0.8544    0.8481   -1.0993 C   0  0  1  0  0  0  0  0  0  0  0  0
   -0.8009    0.2785   -2.4137 O   0  0  0  0  0  0  0  0  0  0  0  0
   -2.3256    1.0074   -0.7166 C   0  0  0  0  0  0  0  0  0  0  0  0
    1.4834    0.1350   -0.1251 C   0  0  2  0  0  0  0  0  0  0  0  0
    1.8694    1.3072    0.6851 N   0  0  0  0  0  0  0  0  0  0  0  0
    2.2828    2.4991    0.0987 C   0  0  0  0  0  0  0  0  0  0  0  0
    2.4525    2.6626   -1.2371 C   0  0  0  0  0  0  0  0  0  0  0  0
    2.8209    3.8531   -1.8099 N   0  0  0  0  0  0  0  0  0  0  0  0
    3.0501    4.8662   -1.0397 C   0  0  0  0  0  0  0  0  0  0  0  0
    3.4187    6.0515   -1.5692 N   0  0  0  0  0  0  0  0  0  0  0  0
    2.9397    4.8099    0.3125 N   0  0  0  0  0  0  0  0  0  0  0  0
    2.5641    3.6765    0.9655 C   0  0  0  0  0  0  0  0  0  0  0  0
    2.4542    3.6241    2.1889 O   0  0  0  0  0  0  0  0  0  0  0  0
    2.2373    1.5589   -2.0480 N   0  0  0  0  0  0  0  0  0  0  0  0
    2.1273    0.1944   -1.5413 C   0  0  0  0  0  0  0  0  0  0  0  0
   -0.1703    1.0227    1.5005 H   0  0  0  0  0  0  0  0  0  0  0  0
   -0.2717   -1.0883   -0.3648 H   0  0  0  0  0  0  0  0  0  0  0  0
   -0.4180    1.8495   -1.1507 H   0  0  0  0  0  0  0  0  0  0  0  0
   -1.4726   -0.4238   -2.4635 H   0  0  0  0  0  0  0  0  0  0  0  0
   -2.8146    0.0315   -0.6226 H   0  0  0  0  0  0  0  0  0  0  0  0
   -2.8645    1.5566   -1.4965 H   0  0  0  0  0  0  0  0  0  0  0  0
   -2.4408    1.5501    0.2264 H   0  0  0  0  0  0  0  0  0  0  0  0
    1.8951   -0.7416    0.3922 H   0  0  0  0  0  0  0  0  0  0  0  0
    1.9558    1.2447    1.6967 H   0  0  0  0  0  0  0  0  0  0  0  0
    3.5012    6.1016   -2.5770 H   0  0  0  0  0  0  0  0  0  0  0  0
    3.6102    6.8784   -1.0275 H   0  0  0  0  0  0  0  0  0  0  0  0
    3.1289    5.6143    0.8837 H   0  0  0  0  0  0  0  0  0  0  0  0
    2.3365    1.7306   -3.0402 H   0  0  0  0  0  0  0  0  0  0  0  0
    1.6040   -0.4487   -2.2547 H   0  0  0  0  0  0  0  0  0  0  0  0
    3.1485   -0.2005   -1.4649 H   0  0  0  0  0  0  0  0  0  0  0  0
 18  1  1  0
  1  2  1  0
  2 19  1  6
  2  3  1  0
  3 20  1  6
  3  4  1  0
  4 21  1  0
  3  5  1  0
  5 22  1  0
  5 23  1  0
  5 24  1  0
  2  6  1  0
  6 25  1  1
  6  7  1  0
  7 26  1  0
  7  8  1  0
  8  9  2  0
  9 10  1  0
 10 11  2  0
 11 12  1  0
 12 27  1  0
 12 28  1  0
 11 13  1  0
 13 29  1  0
  8 14  1  0
 13 14  1  0
 14 15  2  0
  9 16  1  0
 16 30  1  0
  6 17  1  0
 16 17  1  0
 17 31  1  0
 17 32  1  0
M  END
>  <conformer_energy>  (1) 
9.15

>  <ligand_smiles>  (1) 
C[C@H](O)[C@H](O)[C@H]1CNc2nc(N)[nH]c(=O)c2N1

>  <ligand_conf_name>  (1) 
MOL_0_isomer_0_conf_0

>  <ligand_molecule_name>  (1) 
MOL_0_isomer_0

$$$$
