MOL_0_isomer_0_conf_0
     RDKit          3D

 37 39  0  0  0  0  0  0  0  0999 V2000
    2.4884    3.4895    0.4850 O   0  0  0  0  0  0  0  0  0  0  0  0
    2.8740    2.2510   -0.1137 C   0  0  1  0  0  0  0  0  0  0  0  0
    4.3335    1.9565    0.2430 C   0  0  0  0  0  0  0  0  0  0  0  0
    4.2360    1.2425    1.5937 C   0  0  0  0  0  0  0  0  0  0  0  0
    3.0010    0.4974    1.4671 N   0  0  0  0  0  0  0  0  0  0  0  0
    2.9324   -0.8638    1.4497 C   0  0  0  0  0  0  0  0  0  0  0  0
    3.5830   -1.6891    2.1948 N   0  0  0  0  0  0  0  0  0  0  0  0
    3.3700   -3.0618    1.9983 C   0  0  0  0  0  0  0  0  0  0  0  0
    2.3338   -3.6798    2.7087 C   0  0  0  0  0  0  0  0  0  0  0  0
    2.0771   -5.0408    2.5592 C   0  0  0  0  0  0  0  0  0  0  0  0
    2.8627   -5.8093    1.6949 C   0  0  0  0  0  0  0  0  0  0  0  0
    2.5590   -7.2051    1.5609 C   0  0  0  0  0  0  0  0  0  0  0  0
    2.2863   -8.3302    1.4757 N   0  0  0  0  0  0  0  0  0  0  0  0
    3.9172   -5.2038    0.9907 C   0  0  0  0  0  0  0  0  0  0  0  0
    4.8882   -6.1575   -0.0933 Cl  0  0  0  0  0  0  0  0  0  0  0  0
    4.1944   -3.8266    1.1486 C   0  0  0  0  0  0  0  0  0  0  0  0
    5.3316   -3.1764    0.4027 C   0  0  0  0  0  0  0  0  0  0  0  0
    2.0713   -1.2611    0.4611 O   0  0  0  0  0  0  0  0  0  0  0  0
    1.8467   -0.1164   -0.3995 C   0  0  1  0  0  0  0  0  0  0  0  0
    0.4458   -0.0787   -0.9688 C   0  0  0  0  0  0  0  0  0  0  0  0
   -0.5002   -0.0747   -0.0064 F   0  0  0  0  0  0  0  0  0  0  0  0
    0.2744    1.0407   -1.7117 F   0  0  0  0  0  0  0  0  0  0  0  0
    0.2135   -1.1343   -1.7790 F   0  0  0  0  0  0  0  0  0  0  0  0
    2.0886    1.0835    0.4981 C   0  0  2  0  0  0  0  0  0  0  0  0
    2.5021    3.3914    1.4544 H   0  0  0  0  0  0  0  0  0  0  0  0
    2.7214    2.3512   -1.1919 H   0  0  0  0  0  0  0  0  0  0  0  0
    4.9559    2.8536    0.3079 H   0  0  0  0  0  0  0  0  0  0  0  0
    4.7659    1.2747   -0.4992 H   0  0  0  0  0  0  0  0  0  0  0  0
    4.1491    1.9644    2.4127 H   0  0  0  0  0  0  0  0  0  0  0  0
    5.1103    0.6097    1.7763 H   0  0  0  0  0  0  0  0  0  0  0  0
    1.7205   -3.0845    3.3819 H   0  0  0  0  0  0  0  0  0  0  0  0
    1.2600   -5.4928    3.1189 H   0  0  0  0  0  0  0  0  0  0  0  0
    6.2623   -3.7318    0.5593 H   0  0  0  0  0  0  0  0  0  0  0  0
    5.5288   -2.1538    0.7374 H   0  0  0  0  0  0  0  0  0  0  0  0
    5.1037   -3.1366   -0.6674 H   0  0  0  0  0  0  0  0  0  0  0  0
    2.5743   -0.1787   -1.2181 H   0  0  0  0  0  0  0  0  0  0  0  0
    1.1803    1.4181    1.0126 H   0  0  0  0  0  0  0  0  0  0  0  0
 25  1  1  0
  1  2  1  0
  2 26  1  6
  2  3  1  0
  3 27  1  0
  3 28  1  0
  3  4  1  0
  4 29  1  0
  4 30  1  0
  4  5  1  0
  5  6  1  0
  6  7  2  0
  7  8  1  0
  8  9  2  0
  9 31  1  0
  9 10  1  0
 10 32  1  0
 10 11  2  0
 11 12  1  0
 12 13  3  0
 11 14  1  0
 14 15  1  0
  8 16  1  0
 14 16  2  0
 16 17  1  0
 17 33  1  0
 17 34  1  0
 17 35  1  0
  6 18  1  0
 18 19  1  0
 19 36  1  6
 19 20  1  0
 20 21  1  0
 20 22  1  0
 20 23  1  0
  5 24  1  0
  2 24  1  0
 19 24  1  0
 24 37  1  1
M  END
>  <conformer_energy>  (1) 
18.98

>  <ligand_smiles>  (1) 
Cc1c(/N=C2\O[C@@H](C(F)(F)F)[C@@H]3[C@@H](O)CCN23)ccc(C#N)c1Cl

>  <ligand_conf_name>  (1) 
MOL_0_isomer_0_conf_0

>  <ligand_molecule_name>  (1) 
MOL_0_isomer_0

$$$$
