1Q1G - prepared_ligand6_conf_0
     RDKit          3D

 36 38  0  0  0  0  0  0  0  0999 V2000
    4.6275    2.4132   -0.1157 O   0  0  0  0  0  0  0  0  0  0  0  0
    3.9753    1.2126    0.3511 C   0  0  1  0  0  0  0  0  0  0  0  0
    4.4912    0.8958    1.7567 C   0  0  1  0  0  0  0  0  0  0  0  0
    5.8883    1.1955    1.8441 O   0  0  0  0  0  0  0  0  0  0  0  0
    3.6268    1.8135    2.6398 C   0  0  2  0  0  0  0  0  0  0  0  0
    3.1668    1.2808    3.9663 C   0  0  0  0  0  0  0  0  0  0  0  0
    2.9313    2.0674    5.0933 C   0  0  0  0  0  0  0  0  0  0  0  0
    2.5391    1.2653    6.1372 N   0  0  0  0  0  0  0  0  0  0  0  0
    2.5020   -0.0267    5.7035 C   0  0  0  0  0  0  0  0  0  0  0  0
    2.1585   -1.2010    6.4302 C   0  0  0  0  0  0  0  0  0  0  0  0
    1.8149   -1.2332    7.6053 O   0  0  0  0  0  0  0  0  0  0  0  0
    2.2496   -2.3261    5.6484 N   0  0  0  0  0  0  0  0  0  0  0  0
    2.6155   -2.2790    4.3220 C   0  0  0  0  0  0  0  0  0  0  0  0
    2.9178   -1.2189    3.6381 N   0  0  0  0  0  0  0  0  0  0  0  0
    2.8717   -0.0386    4.3857 C   0  0  0  0  0  0  0  0  0  0  0  0
    2.4534    2.2331    1.8346 N   0  0  0  0  0  0  0  0  0  0  0  0
    2.4805    1.4718    0.5637 C   0  0  2  0  0  0  0  0  0  0  0  0
    1.6586    0.1691    0.5614 C   0  0  0  0  0  0  0  0  0  0  0  0
   -0.1342    0.4758    0.7666 S   0  0  0  0  0  0  0  0  0  0  0  0
   -0.3598   -0.1333    2.4551 C   0  0  0  0  0  0  0  0  0  0  0  0
    4.1402    3.1584    0.2921 H   0  0  0  0  0  0  0  0  0  0  0  0
    4.1980    0.4168   -0.3654 H   0  0  0  0  0  0  0  0  0  0  0  0
    4.3586   -0.1655    1.9697 H   0  0  0  0  0  0  0  0  0  0  0  0
    6.0566    1.8569    1.1410 H   0  0  0  0  0  0  0  0  0  0  0  0
    4.2049    2.7252    2.8466 H   0  0  0  0  0  0  0  0  0  0  0  0
    3.0233    3.1372    5.2335 H   0  0  0  0  0  0  0  0  0  0  0  0
    2.3169    1.5718    7.0773 H   0  0  0  0  0  0  0  0  0  0  0  0
    2.0304   -3.2017    6.0980 H   0  0  0  0  0  0  0  0  0  0  0  0
    2.6299   -3.2719    3.8441 H   0  0  0  0  0  0  0  0  0  0  0  0
    1.5853    2.0429    2.3347 H   0  0  0  0  0  0  0  0  0  0  0  0
    2.1038    2.1303   -0.2291 H   0  0  0  0  0  0  0  0  0  0  0  0
    2.0051   -0.5427    1.3121 H   0  0  0  0  0  0  0  0  0  0  0  0
    1.7810   -0.3211   -0.4111 H   0  0  0  0  0  0  0  0  0  0  0  0
   -1.4242   -0.1020    2.7036 H   0  0  0  0  0  0  0  0  0  0  0  0
    0.1729    0.4967    3.1690 H   0  0  0  0  0  0  0  0  0  0  0  0
   -0.0188   -1.1681    2.5401 H   0  0  0  0  0  0  0  0  0  0  0  0
 21  1  1  0
  1  2  1  0
  2 22  1  6
  2  3  1  0
  3 23  1  1
  3  4  1  0
  4 24  1  0
  3  5  1  0
  5 25  1  1
  5  6  1  0
  6  7  2  0
  7 26  1  0
  7  8  1  0
  8 27  1  0
  8  9  1  0
  9 10  1  0
 10 11  2  0
 10 12  1  0
 12 28  1  0
 12 13  1  0
 13 29  1  0
 13 14  2  0
  6 15  1  0
  9 15  2  0
 14 15  1  0
  5 16  1  0
 16 30  1  0
  2 17  1  0
 16 17  1  0
 17 31  1  6
 17 18  1  0
 18 32  1  0
 18 33  1  0
 18 19  1  0
 19 20  1  0
 20 34  1  0
 20 35  1  0
 20 36  1  0
M  END
>  <conformer_energy>  (1) 
12.56

>  <ligand_smiles>  (1) 
CSC[C@H]1N[C@@H](c2c[nH]c3c(=O)[nH]cnc23)[C@H](O)[C@@H]1O

>  <ligand_conf_name>  (1) 
1Q1G - prepared_ligand6_conf_0

>  <ligand_molecule_name>  (1) 
1Q1G - prepared_ligand6

>  <fragInfo>  (1) 
1 2 3 4 5 16 17 21 22 23 24 25 30 31
6 7 8 9 10 11 12 13 14 15 26 27 28 29
18 32 33
19 20 34 35 36


>  <torsionInfo>  (1) 
5 6 0 1
17 18 0 2
18 19 2 3


>  <atomInfo>  (1) 
1  -0.388686 OA
2  0.097817  C 
3  0.100986  C 
4  -0.388364 OA
5  0.064999  C 
6  0.015846  A 
7  0.008400  A 
8  -0.355017 N 
9  0.130726  A 
10 0.274536  A 
11 -0.267095 OA
12 -0.311329 N 
13 0.095598  A 
14 -0.236203 NA
15 0.100202  A 
16 -0.301317 NA
17 0.045120  C 
18 0.011059  C 
19 -0.163703 SA
20 -0.018340 C 
21 0.210665  HD
22 0.064580  H 
23 0.064909  H 
24 0.210681  HD
25 0.054606  H 
26 0.081998  H 
27 0.166182  HD
28 0.170799  HD
29 0.104213  H 
30 0.123328  HD
31 0.050187  H 
32 0.039738  H 
33 0.039738  H 
34 0.034381  H 
35 0.034381  H 
36 0.034381  H 


$$$$
