MOL_0_isomer_0_conf_0
     RDKit          3D

 29 30  0  0  0  0  0  0  0  0999 V2000
    1.2277    4.3607   -2.9483 C   0  0  0  0  0  0  0  0  0  0  0  0
    0.2469    4.2755   -1.9621 C   0  0  0  0  0  0  0  0  0  0  0  0
    0.4242    3.4231   -0.8710 C   0  0  0  0  0  0  0  0  0  0  0  0
    1.5860    2.6488   -0.7547 C   0  0  0  0  0  0  0  0  0  0  0  0
    1.7801    1.7261    0.4244 C   0  0  0  0  0  0  0  0  0  0  0  0
    1.4484    0.2540    0.1430 C   0  0  0  0  0  0  0  0  0  0  0  0
   -0.0364   -0.0368    0.0914 C   0  0  0  0  0  0  0  0  0  0  0  0
   -0.6355    0.1382   -1.1328 N   0  0  0  0  0  0  0  0  0  0  0  0
   -1.9031   -0.1018   -1.2336 C   0  0  0  0  0  0  0  0  0  0  0  0
   -2.5338    0.0726   -2.4122 N   0  0  0  0  0  0  0  0  0  0  0  0
   -2.6548   -0.5320   -0.1854 N   0  0  0  0  0  0  0  0  0  0  0  0
   -2.1274   -0.7465    1.0517 C   0  0  0  0  0  0  0  0  0  0  0  0
   -2.7914   -1.1377    2.0044 O   0  0  0  0  0  0  0  0  0  0  0  0
   -0.6906   -0.4732    1.1772 C   0  0  0  0  0  0  0  0  0  0  0  0
    2.5629    2.7372   -1.7560 C   0  0  0  0  0  0  0  0  0  0  0  0
    2.3846    3.5906   -2.8462 C   0  0  0  0  0  0  0  0  0  0  0  0
    1.0888    5.0235   -3.7978 H   0  0  0  0  0  0  0  0  0  0  0  0
   -0.6593    4.8692   -2.0431 H   0  0  0  0  0  0  0  0  0  0  0  0
   -0.3557    3.3566   -0.1163 H   0  0  0  0  0  0  0  0  0  0  0  0
    2.8313    1.7952    0.7352 H   0  0  0  0  0  0  0  0  0  0  0  0
    1.2007    2.0914    1.2824 H   0  0  0  0  0  0  0  0  0  0  0  0
    1.9236   -0.0828   -0.7872 H   0  0  0  0  0  0  0  0  0  0  0  0
    1.8995   -0.3511    0.9412 H   0  0  0  0  0  0  0  0  0  0  0  0
   -1.9729    0.4083   -3.1858 H   0  0  0  0  0  0  0  0  0  0  0  0
   -3.5158   -0.0915   -2.5600 H   0  0  0  0  0  0  0  0  0  0  0  0
   -3.6373   -0.7124   -0.2932 H   0  0  0  0  0  0  0  0  0  0  0  0
   -0.2307   -0.6299    2.1421 H   0  0  0  0  0  0  0  0  0  0  0  0
    3.4690    2.1395   -1.6922 H   0  0  0  0  0  0  0  0  0  0  0  0
    3.1481    3.6521   -3.6169 H   0  0  0  0  0  0  0  0  0  0  0  0
 17  1  1  0
  1  2  2  0
  2 18  1  0
  2  3  1  0
  3 19  1  0
  3  4  2  0
  4  5  1  0
  5 20  1  0
  5 21  1  0
  5  6  1  0
  6 22  1  0
  6 23  1  0
  6  7  1  0
  7  8  1  0
  8  9  2  0
  9 10  1  0
 10 24  1  0
 10 25  1  0
  9 11  1  0
 11 26  1  0
 11 12  1  0
 12 13  2  0
  7 14  2  0
 12 14  1  0
 14 27  1  0
  4 15  1  0
 15 28  1  0
  1 16  1  0
 15 16  2  0
 16 29  1  0
M  END
>  <conformer_energy>  (1) 
-101.09

>  <ligand_smiles>  (1) 
Nc1nc(CCc2ccccc2)cc(=O)[nH]1

>  <ligand_conf_name>  (1) 
MOL_0_isomer_0_conf_0

>  <ligand_molecule_name>  (1) 
MOL_0_isomer_0

$$$$
