MOL_0_isomer_0_conf_0
     RDKit          3D

 41 44  0  0  0  0  0  0  0  0999 V2000
    2.2694   -1.1111    0.0024 C   0  0  0  0  0  0  0  0  0  0  0  0
    1.4938   -0.0105    0.0427 C   0  0  0  0  0  0  0  0  0  0  0  0
   -0.0148   -0.1018    0.0571 C   0  0  0  0  0  0  0  0  0  0  0  0
   -0.6011    0.1933    1.4304 C   0  0  0  0  0  0  0  0  0  0  0  0
    2.0936    1.3836    0.0249 C   0  0  0  0  0  0  0  0  0  0  0  0
    3.6256    1.3997    0.2468 C   0  0  1  0  0  0  0  0  0  0  0  0
    3.9587    1.2206    1.7323 C   0  0  0  0  0  0  0  0  0  0  0  0
    3.9049    2.2963    2.6444 C   0  0  0  0  0  0  0  0  0  0  0  0
    3.5823    3.5720    2.1984 N   0  0  0  0  0  0  0  0  0  0  0  0
    4.1829    2.0574    4.0203 C   0  0  0  0  0  0  0  0  0  0  0  0
    4.1665    3.0517    5.0291 C   0  0  0  0  0  0  0  0  0  0  0  0
    4.4471    2.7483    6.3656 C   0  0  0  0  0  0  0  0  0  0  0  0
    4.7505    1.4439    6.7282 C   0  0  0  0  0  0  0  0  0  0  0  0
    5.0959    1.0642    8.3668 Cl  0  0  0  0  0  0  0  0  0  0  0  0
    4.7771    0.4372    5.7690 C   0  0  0  0  0  0  0  0  0  0  0  0
    4.4960    0.7400    4.4280 C   0  0  0  0  0  0  0  0  0  0  0  0
    4.5266   -0.2437    3.5141 N   0  0  0  0  0  4  0  0  0  0  0  0
    4.2712   -0.0650    2.2090 C   0  0  0  0  0  0  0  0  0  0  0  0
    4.3844   -1.2768    1.3190 C   0  0  0  0  0  0  0  0  0  0  0  0
    3.7781   -1.0582   -0.0733 C   0  0  2  0  0  0  0  0  0  0  0  0
    4.2628    0.2930   -0.6051 C   0  0  0  0  0  0  0  0  0  0  0  0
    1.8106   -2.0996    0.0026 H   0  0  0  0  0  0  0  0  0  0  0  0
   -0.4293    0.5940   -0.6821 H   0  0  0  0  0  0  0  0  0  0  0  0
   -0.3379   -1.1034   -0.2530 H   0  0  0  0  0  0  0  0  0  0  0  0
   -0.2018   -0.4914    2.1862 H   0  0  0  0  0  0  0  0  0  0  0  0
   -1.6892    0.0739    1.4077 H   0  0  0  0  0  0  0  0  0  0  0  0
   -0.3853    1.2176    1.7500 H   0  0  0  0  0  0  0  0  0  0  0  0
    1.8763    1.8254   -0.9564 H   0  0  0  0  0  0  0  0  0  0  0  0
    1.5980    2.0133    0.7720 H   0  0  0  0  0  0  0  0  0  0  0  0
    4.0380    2.3528   -0.1041 H   0  0  0  0  0  0  0  0  0  0  0  0
    3.5410    4.3709    2.8170 H   0  0  0  0  0  0  0  0  0  0  0  0
    3.3591    3.7729    1.2322 H   0  0  0  0  0  0  0  0  0  0  0  0
    3.9339    4.0883    4.7949 H   0  0  0  0  0  0  0  0  0  0  0  0
    4.4251    3.5392    7.1143 H   0  0  0  0  0  0  0  0  0  0  0  0
    5.0173   -0.5767    6.0789 H   0  0  0  0  0  0  0  0  0  0  0  0
    4.7546   -1.1852    3.8311 H   0  0  0  0  0  0  0  0  0  0  0  0
    3.9178   -2.1387    1.8120 H   0  0  0  0  0  0  0  0  0  0  0  0
    5.4526   -1.5051    1.2126 H   0  0  0  0  0  0  0  0  0  0  0  0
    4.1165   -1.8541   -0.7474 H   0  0  0  0  0  0  0  0  0  0  0  0
    3.9805    0.4161   -1.6587 H   0  0  0  0  0  0  0  0  0  0  0  0
    5.3581    0.3511   -0.5609 H   0  0  0  0  0  0  0  0  0  0  0  0
 22  1  1  0
  1  2  2  0
  2  3  1  0
  3 23  1  0
  3 24  1  0
  3  4  1  0
  4 25  1  0
  4 26  1  0
  4 27  1  0
  2  5  1  0
  5 28  1  0
  5 29  1  0
  5  6  1  0
  6 30  1  6
  6  7  1  0
  7  8  2  0
  8  9  1  0
  9 31  1  0
  9 32  1  0
  8 10  1  0
 10 11  2  0
 11 33  1  0
 11 12  1  0
 12 34  1  0
 12 13  2  0
 13 14  1  0
 13 15  1  0
 15 35  1  0
 10 16  1  0
 15 16  2  0
 16 17  1  0
 17 36  1  0
  7 18  1  0
 17 18  2  0
 18 19  1  0
 19 37  1  0
 19 38  1  0
  1 20  1  0
 19 20  1  0
 20 39  1  6
  6 21  1  0
 20 21  1  0
 21 40  1  0
 21 41  1  0
M  CHG  1  17   1
M  END
>  <conformer_energy>  (1) 
63.60

>  <ligand_smiles>  (1) 
CCC1=C[C@@H]2Cc3[nH+]c4cc(Cl)ccc4c(N)c3[C@H](C1)C2

>  <ligand_conf_name>  (1) 
MOL_0_isomer_0_conf_0

>  <ligand_molecule_name>  (1) 
MOL_0_isomer_0

$$$$
