MOL_0_isomer_0_chiral_N_isomer_0_conf_0
     RDKit          3D

 47 49  0  0  0  0  0  0  0  0999 V2000
    1.0626   -7.8541    7.7216 O   0  0  0  0  0  0  0  0  0  0  0  0
    1.9831   -7.5929    6.7478 C   0  0  0  0  0  0  0  0  0  0  0  0
    1.5476   -7.4045    5.4426 C   0  0  0  0  0  0  0  0  0  0  0  0
    2.4846   -7.1377    4.4443 C   0  0  0  0  0  0  0  0  0  0  0  0
    3.8443   -7.0582    4.7779 C   0  0  0  0  0  0  0  0  0  0  0  0
    5.0259   -6.6976    3.4989 S   0  0  0  0  0  6  0  0  0  0  0  0
    6.3217   -6.5289    4.1323 O   0  0  0  0  0  0  0  0  0  0  0  0
    4.8300   -7.6973    2.4659 O   0  0  0  0  0  0  0  0  0  0  0  0
    4.5850   -5.1115    2.8263 C   0  0  0  0  0  0  0  0  0  0  0  0
    4.0617   -5.0214    1.5352 C   0  0  0  0  0  0  0  0  0  0  0  0
    3.7191   -3.7698    1.0219 C   0  0  0  0  0  0  0  0  0  0  0  0
    3.9093   -2.6071    1.7862 C   0  0  0  0  0  0  0  0  0  0  0  0
    3.5205   -1.2599    1.2220 C   0  0  0  0  0  0  0  0  0  0  0  0
    2.0501   -1.1205    1.1894 N   0  0  0  0  0  0  0  0  0  0  0  0
    1.5384    0.4215    0.7171 S   0  0  0  0  0  6  0  0  0  0  0  0
    1.4790    1.2074    1.9285 O   0  0  0  0  0  0  0  0  0  0  0  0
    2.3142    0.8327   -0.4309 O   0  0  0  0  0  0  0  0  0  0  0  0
   -0.1106    0.0780    0.1686 C   0  0  0  0  0  0  0  0  0  0  0  0
   -1.1992    0.3755    0.9998 C   0  0  0  0  0  0  0  0  0  0  0  0
   -2.4950    0.1109    0.5550 C   0  0  0  0  0  0  0  0  0  0  0  0
   -2.6801   -0.4343   -0.7088 C   0  0  0  0  0  0  0  0  0  0  0  0
   -3.9499   -0.6909   -1.1398 O   0  0  0  0  0  0  0  0  0  0  0  0
   -1.5944   -0.7152   -1.5381 C   0  0  0  0  0  0  0  0  0  0  0  0
   -1.8582   -1.2416   -2.7720 O   0  0  0  0  0  0  0  0  0  0  0  0
   -0.2985   -0.4614   -1.1105 C   0  0  0  0  0  0  0  0  0  0  0  0
    4.4393   -2.7164    3.0810 C   0  0  0  0  0  0  0  0  0  0  0  0
    4.7835   -3.9655    3.6010 C   0  0  0  0  0  0  0  0  0  0  0  0
    4.2844   -7.2569    6.0922 C   0  0  0  0  0  0  0  0  0  0  0  0
    3.3381   -7.5249    7.0720 C   0  0  0  0  0  0  0  0  0  0  0  0
    3.6883   -7.7312    8.3773 O   0  0  0  0  0  0  0  0  0  0  0  0
    1.5888   -7.9646    8.5386 H   0  0  0  0  0  0  0  0  0  0  0  0
    0.4892   -7.4723    5.2074 H   0  0  0  0  0  0  0  0  0  0  0  0
    2.1499   -7.0045    3.4182 H   0  0  0  0  0  0  0  0  0  0  0  0
    3.9178   -5.9100    0.9241 H   0  0  0  0  0  0  0  0  0  0  0  0
    3.3018   -3.6998    0.0184 H   0  0  0  0  0  0  0  0  0  0  0  0
    3.9334   -1.1703    0.2109 H   0  0  0  0  0  0  0  0  0  0  0  0
    3.9569   -0.4650    1.8381 H   0  0  0  0  0  0  0  0  0  0  0  0
    1.6697   -1.3054    2.1204 H   0  0  0  0  0  0  0  0  0  0  0  0
   -1.0501    0.8120    1.9850 H   0  0  0  0  0  0  0  0  0  0  0  0
   -3.3532    0.3316    1.1834 H   0  0  0  0  0  0  0  0  0  0  0  0
   -3.8378   -1.0559   -2.0406 H   0  0  0  0  0  0  0  0  0  0  0  0
   -1.0180   -1.3346   -3.2543 H   0  0  0  0  0  0  0  0  0  0  0  0
    0.5576   -0.6730   -1.7442 H   0  0  0  0  0  0  0  0  0  0  0  0
    4.5949   -1.8278    3.6909 H   0  0  0  0  0  0  0  0  0  0  0  0
    5.2097   -4.0339    4.5997 H   0  0  0  0  0  0  0  0  0  0  0  0
    5.3418   -7.2046    6.3342 H   0  0  0  0  0  0  0  0  0  0  0  0
    4.6592   -7.7048    8.4459 H   0  0  0  0  0  0  0  0  0  0  0  0
 31  1  1  0
  1  2  1  0
  2  3  2  0
  3 32  1  0
  3  4  1  0
  4 33  1  0
  4  5  2  0
  5  6  1  0
  6  7  2  0
  6  8  2  0
  6  9  1  0
  9 10  2  0
 10 34  1  0
 10 11  1  0
 11 35  1  0
 11 12  2  0
 12 13  1  0
 13 36  1  0
 13 37  1  0
 13 14  1  0
 14 38  1  6
 14 15  1  0
 15 16  2  0
 15 17  2  0
 15 18  1  0
 18 19  2  0
 19 39  1  0
 19 20  1  0
 20 40  1  0
 20 21  2  0
 21 22  1  0
 22 41  1  0
 21 23  1  0
 23 24  1  0
 24 42  1  0
 18 25  1  0
 23 25  2  0
 25 43  1  0
 12 26  1  0
 26 44  1  0
  9 27  1  0
 26 27  2  0
 27 45  1  0
  5 28  1  0
 28 46  1  0
  2 29  1  0
 28 29  2  0
 29 30  1  0
 30 47  1  0
M  END
>  <conformer_energy>  (1) 
-0.66

>  <ligand_smiles>  (1) 
O=S(=O)(NCc1ccc(S(=O)(=O)c2ccc(O)c(O)c2)cc1)c1ccc(O)c(O)c1

>  <ligand_conf_name>  (1) 
MOL_0_isomer_0_chiral_N_isomer_0_conf_0

>  <ligand_molecule_name>  (1) 
MOL_0_isomer_0_chiral_N_isomer_0

$$$$
MOL_0_isomer_0_chiral_N_isomer_1_conf_0
     RDKit          3D

 47 49  0  0  0  0  0  0  0  0999 V2000
   10.7781   -7.1011    4.0424 O   0  0  0  0  0  0  0  0  0  0  0  0
    9.4300   -7.1066    3.8266 C   0  0  0  0  0  0  0  0  0  0  0  0
    8.9362   -7.6805    2.6625 C   0  0  0  0  0  0  0  0  0  0  0  0
    7.5593   -7.6876    2.4376 C   0  0  0  0  0  0  0  0  0  0  0  0
    6.7027   -7.1049    3.3820 C   0  0  0  0  0  0  0  0  0  0  0  0
    4.9464   -7.1206    3.0971 S   0  0  0  0  0  6  0  0  0  0  0  0
    4.6559   -8.2250    2.2012 O   0  0  0  0  0  0  0  0  0  0  0  0
    4.3038   -7.0409    4.3967 O   0  0  0  0  0  0  0  0  0  0  0  0
    4.5789   -5.6167    2.2221 C   0  0  0  0  0  0  0  0  0  0  0  0
    4.0954   -4.5076    2.9194 C   0  0  0  0  0  0  0  0  0  0  0  0
    3.8045   -3.3341    2.2224 C   0  0  0  0  0  0  0  0  0  0  0  0
    3.9890   -3.2638    0.8319 C   0  0  0  0  0  0  0  0  0  0  0  0
    3.6571   -1.9902    0.0886 C   0  0  0  0  0  0  0  0  0  0  0  0
    2.1977   -1.7631    0.0763 N   0  0  0  0  0  0  0  0  0  0  0  0
    1.7357   -0.4339   -0.8624 S   0  0  0  0  0  6  0  0  0  0  0  0
    2.6780    0.6407   -0.6527 O   0  0  0  0  0  0  0  0  0  0  0  0
    1.4535   -0.9687   -2.1763 O   0  0  0  0  0  0  0  0  0  0  0  0
    0.2067    0.0272   -0.0972 C   0  0  0  0  0  0  0  0  0  0  0  0
    0.2175    0.4426    1.2423 C   0  0  0  0  0  0  0  0  0  0  0  0
   -0.9791    0.8067    1.8597 C   0  0  0  0  0  0  0  0  0  0  0  0
   -2.1594    0.7544    1.1300 C   0  0  0  0  0  0  0  0  0  0  0  0
   -3.3291    1.1120    1.7365 O   0  0  0  0  0  0  0  0  0  0  0  0
   -2.1642    0.3474   -0.2046 C   0  0  0  0  0  0  0  0  0  0  0  0
   -3.3663    0.3288   -0.8567 O   0  0  0  0  0  0  0  0  0  0  0  0
   -0.9825   -0.0212   -0.8340 C   0  0  0  0  0  0  0  0  0  0  0  0
    4.4537   -4.3953    0.1441 C   0  0  0  0  0  0  0  0  0  0  0  0
    4.7463   -5.5725    0.8354 C   0  0  0  0  0  0  0  0  0  0  0  0
    7.1999   -6.5414    4.5645 C   0  0  0  0  0  0  0  0  0  0  0  0
    8.5725   -6.5469    4.7735 C   0  0  0  0  0  0  0  0  0  0  0  0
    9.1354   -6.0141    5.8999 O   0  0  0  0  0  0  0  0  0  0  0  0
   10.8893   -6.6670    4.9117 H   0  0  0  0  0  0  0  0  0  0  0  0
    9.6181   -8.1237    1.9427 H   0  0  0  0  0  0  0  0  0  0  0  0
    7.1670   -8.1500    1.5344 H   0  0  0  0  0  0  0  0  0  0  0  0
    3.9344   -4.5463    3.9946 H   0  0  0  0  0  0  0  0  0  0  0  0
    3.4209   -2.4708    2.7647 H   0  0  0  0  0  0  0  0  0  0  0  0
    4.0307   -2.0571   -0.9403 H   0  0  0  0  0  0  0  0  0  0  0  0
    4.1679   -1.1560    0.5831 H   0  0  0  0  0  0  0  0  0  0  0  0
    1.7250   -2.5906   -0.2946 H   0  0  0  0  0  0  0  0  0  0  0  0
    1.1499    0.4842    1.8011 H   0  0  0  0  0  0  0  0  0  0  0  0
   -0.9936    1.1303    2.8968 H   0  0  0  0  0  0  0  0  0  0  0  0
   -4.0110    1.0052    1.0435 H   0  0  0  0  0  0  0  0  0  0  0  0
   -3.2136    0.0585   -1.7792 H   0  0  0  0  0  0  0  0  0  0  0  0
   -0.9750   -0.3374   -1.8727 H   0  0  0  0  0  0  0  0  0  0  0  0
    4.5872   -4.3697   -0.9363 H   0  0  0  0  0  0  0  0  0  0  0  0
    5.0952   -6.4451    0.2867 H   0  0  0  0  0  0  0  0  0  0  0  0
    6.5231   -6.1150    5.2989 H   0  0  0  0  0  0  0  0  0  0  0  0
    8.4239   -5.7133    6.4925 H   0  0  0  0  0  0  0  0  0  0  0  0
 31  1  1  0
  1  2  1  0
  2  3  2  0
  3 32  1  0
  3  4  1  0
  4 33  1  0
  4  5  2  0
  5  6  1  0
  6  7  2  0
  6  8  2  0
  6  9  1  0
  9 10  2  0
 10 34  1  0
 10 11  1  0
 11 35  1  0
 11 12  2  0
 12 13  1  0
 13 36  1  0
 13 37  1  0
 13 14  1  0
 14 38  1  1
 14 15  1  0
 15 16  2  0
 15 17  2  0
 15 18  1  0
 18 19  2  0
 19 39  1  0
 19 20  1  0
 20 40  1  0
 20 21  2  0
 21 22  1  0
 22 41  1  0
 21 23  1  0
 23 24  1  0
 24 42  1  0
 18 25  1  0
 23 25  2  0
 25 43  1  0
 12 26  1  0
 26 44  1  0
  9 27  1  0
 26 27  2  0
 27 45  1  0
  5 28  1  0
 28 46  1  0
  2 29  1  0
 28 29  2  0
 29 30  1  0
 30 47  1  0
M  END
>  <conformer_energy>  (2) 
-0.40

>  <ligand_smiles>  (2) 
O=S(=O)(NCc1ccc(S(=O)(=O)c2ccc(O)c(O)c2)cc1)c1ccc(O)c(O)c1

>  <ligand_conf_name>  (2) 
MOL_0_isomer_0_chiral_N_isomer_1_conf_0

>  <ligand_molecule_name>  (2) 
MOL_0_isomer_0_chiral_N_isomer_1

$$$$
