MOL_0_isomer_0_conf_0
     RDKit          3D

 75 78  0  0  0  0  0  0  0  0999 V2000
    9.6550    4.6376    4.1035 O   0  0  0  0  0  0  0  0  0  0  0  0
    8.6449    3.7533    3.6227 C   0  0  2  0  0  0  0  0  0  0  0  0
    8.3204    4.0720    2.1620 C   0  0  0  0  0  0  0  0  0  0  0  0
    7.1480    3.2645    1.6457 C   0  0  0  0  0  0  0  0  0  0  0  0
    7.2517    2.5973    0.4818 C   0  0  0  0  0  0  0  0  0  0  0  0
    6.1649    1.7812   -0.1402 C   0  0  1  0  0  0  0  0  0  0  0  0
    6.5667    0.4200   -0.0327 O   0  0  0  0  0  0  0  0  0  0  0  0
    4.7784    2.0202    0.4953 C   0  0  2  0  0  0  0  0  0  0  0  0
    4.8930    2.0937    2.0474 C   0  0  2  0  0  0  0  0  0  0  0  0
    3.5070    2.1388    2.7428 C   0  0  0  0  0  0  0  0  0  0  0  0
    2.5093    1.0878    2.2273 C   0  0  0  0  0  0  0  0  0  0  0  0
    2.3519    1.1462    0.6978 C   0  0  2  0  0  0  0  0  0  0  0  0
    1.6984    2.4835    0.2751 C   0  0  0  0  0  0  0  0  0  0  0  0
    1.6174   -0.0667    0.0441 C   0  0  1  0  0  0  0  0  0  0  0  0
    0.0652   -0.1111    0.0572 C   0  0  2  0  0  0  0  0  0  0  0  0
   -0.5165   -0.0987    1.4742 C   0  0  0  0  0  0  0  0  0  0  0  0
   -0.5134   -1.3112   -0.7384 C   0  0  0  0  0  0  0  0  0  0  0  0
   -0.1144   -2.6967   -0.2150 C   0  0  0  0  0  0  0  0  0  0  0  0
   -0.7793   -3.8061   -1.0386 C   0  0  0  0  0  0  0  0  0  0  0  0
   -0.3167   -5.2220   -0.6472 C   0  0  0  0  0  0  0  0  0  0  0  0
   -0.9159   -6.2483   -1.6119 C   0  0  0  0  0  0  0  0  0  0  0  0
   -0.6933   -5.5841    0.7901 C   0  0  0  0  0  0  0  0  0  0  0  0
    2.1904   -0.0816   -1.4025 C   0  0  0  0  0  0  0  0  0  0  0  0
    3.5178    0.6871   -1.3713 C   0  0  0  0  0  0  0  0  0  0  0  0
    3.7678    0.9301    0.1097 C   0  0  1  0  0  0  0  0  0  0  0  0
    5.8758    3.2480    2.5066 C   0  0  2  0  0  0  0  0  0  0  0  0
    5.2059    4.6387    2.3885 C   0  0  0  0  0  0  0  0  0  0  0  0
    6.2703    2.9897    3.9918 C   0  0  0  0  0  0  0  0  0  0  0  0
    7.4064    3.8734    4.5058 C   0  0  0  0  0  0  0  0  0  0  0  0
    9.3041    5.5439    4.0676 H   0  0  0  0  0  0  0  0  0  0  0  0
    9.0468    2.7356    3.6946 H   0  0  0  0  0  0  0  0  0  0  0  0
    8.1035    5.1421    2.0530 H   0  0  0  0  0  0  0  0  0  0  0  0
    9.2221    3.9051    1.5585 H   0  0  0  0  0  0  0  0  0  0  0  0
    8.1821    2.6287   -0.0826 H   0  0  0  0  0  0  0  0  0  0  0  0
    6.1095    2.0179   -1.2086 H   0  0  0  0  0  0  0  0  0  0  0  0
    6.8298    0.2686    0.8908 H   0  0  0  0  0  0  0  0  0  0  0  0
    4.4204    2.9878    0.1247 H   0  0  0  0  0  0  0  0  0  0  0  0
    5.3448    1.1412    2.3660 H   0  0  0  0  0  0  0  0  0  0  0  0
    3.0495    3.1254    2.6274 H   0  0  0  0  0  0  0  0  0  0  0  0
    3.6310    1.9846    3.8208 H   0  0  0  0  0  0  0  0  0  0  0  0
    2.8558    0.0925    2.5340 H   0  0  0  0  0  0  0  0  0  0  0  0
    1.5530    1.2498    2.7321 H   0  0  0  0  0  0  0  0  0  0  0  0
    2.3051    3.3538    0.5383 H   0  0  0  0  0  0  0  0  0  0  0  0
    0.7299    2.6170    0.7684 H   0  0  0  0  0  0  0  0  0  0  0  0
    1.5212    2.5383   -0.8037 H   0  0  0  0  0  0  0  0  0  0  0  0
    1.9807   -0.9738    0.5483 H   0  0  0  0  0  0  0  0  0  0  0  0
   -0.3112    0.7866   -0.4507 H   0  0  0  0  0  0  0  0  0  0  0  0
   -0.4232    0.8908    1.9285 H   0  0  0  0  0  0  0  0  0  0  0  0
   -1.5866   -0.3332    1.4635 H   0  0  0  0  0  0  0  0  0  0  0  0
   -0.0170   -0.8245    2.1235 H   0  0  0  0  0  0  0  0  0  0  0  0
   -0.2192   -1.2271   -1.7914 H   0  0  0  0  0  0  0  0  0  0  0  0
   -1.6090   -1.2341   -0.7340 H   0  0  0  0  0  0  0  0  0  0  0  0
   -0.4097   -2.7906    0.8343 H   0  0  0  0  0  0  0  0  0  0  0  0
    0.9724   -2.8202   -0.2651 H   0  0  0  0  0  0  0  0  0  0  0  0
   -0.5501   -3.6414   -2.0994 H   0  0  0  0  0  0  0  0  0  0  0  0
   -1.8696   -3.7308   -0.9374 H   0  0  0  0  0  0  0  0  0  0  0  0
    0.7757   -5.2732   -0.7391 H   0  0  0  0  0  0  0  0  0  0  0  0
   -0.6219   -6.0307   -2.6442 H   0  0  0  0  0  0  0  0  0  0  0  0
   -2.0102   -6.2481   -1.5634 H   0  0  0  0  0  0  0  0  0  0  0  0
   -0.5661   -7.2582   -1.3729 H   0  0  0  0  0  0  0  0  0  0  0  0
   -0.4150   -6.6194    1.0151 H   0  0  0  0  0  0  0  0  0  0  0  0
   -1.7708   -5.4804    0.9564 H   0  0  0  0  0  0  0  0  0  0  0  0
   -0.1732   -4.9466    1.5113 H   0  0  0  0  0  0  0  0  0  0  0  0
    2.3475   -1.1123   -1.7394 H   0  0  0  0  0  0  0  0  0  0  0  0
    1.5118    0.3980   -2.1171 H   0  0  0  0  0  0  0  0  0  0  0  0
    4.3220    0.1085   -1.8369 H   0  0  0  0  0  0  0  0  0  0  0  0
    3.4273    1.6293   -1.9234 H   0  0  0  0  0  0  0  0  0  0  0  0
    4.1530   -0.0203    0.5154 H   0  0  0  0  0  0  0  0  0  0  0  0
    4.8030    4.8114    1.3852 H   0  0  0  0  0  0  0  0  0  0  0  0
    4.3866    4.7554    3.1053 H   0  0  0  0  0  0  0  0  0  0  0  0
    5.9042    5.4573    2.5926 H   0  0  0  0  0  0  0  0  0  0  0  0
    6.5781    1.9420    4.1125 H   0  0  0  0  0  0  0  0  0  0  0  0
    5.4033    3.1336    4.6473 H   0  0  0  0  0  0  0  0  0  0  0  0
    7.0828    4.9196    4.5673 H   0  0  0  0  0  0  0  0  0  0  0  0
    7.6619    3.5884    5.5339 H   0  0  0  0  0  0  0  0  0  0  0  0
 30  1  1  0
  1  2  1  0
  2 31  1  6
  2  3  1  0
  3 32  1  0
  3 33  1  0
  3  4  1  0
  4  5  2  0
  5 34  1  0
  5  6  1  0
  6 35  1  6
  6  7  1  0
  7 36  1  0
  6  8  1  0
  8 37  1  6
  8  9  1  0
  9 38  1  1
  9 10  1  0
 10 39  1  0
 10 40  1  0
 10 11  1  0
 11 41  1  0
 11 42  1  0
 11 12  1  0
 12 13  1  1
 13 43  1  0
 13 44  1  0
 13 45  1  0
 12 14  1  0
 14 46  1  1
 14 15  1  0
 15 47  1  6
 15 16  1  0
 16 48  1  0
 16 49  1  0
 16 50  1  0
 15 17  1  0
 17 51  1  0
 17 52  1  0
 17 18  1  0
 18 53  1  0
 18 54  1  0
 18 19  1  0
 19 55  1  0
 19 56  1  0
 19 20  1  0
 20 57  1  0
 20 21  1  0
 21 58  1  0
 21 59  1  0
 21 60  1  0
 20 22  1  0
 22 61  1  0
 22 62  1  0
 22 63  1  0
 14 23  1  0
 23 64  1  0
 23 65  1  0
 23 24  1  0
 24 66  1  0
 24 67  1  0
 12 25  1  0
  8 25  1  0
 24 25  1  0
 25 68  1  1
  4 26  1  0
  9 26  1  0
 26 27  1  1
 27 69  1  0
 27 70  1  0
 27 71  1  0
 26 28  1  0
 28 72  1  0
 28 73  1  0
  2 29  1  0
 28 29  1  0
 29 74  1  0
 29 75  1  0
M  END
>  <conformer_energy>  (1) 
88.89

>  <ligand_smiles>  (1) 
CC(C)CCC[C@@H](C)[C@H]1CC[C@H]2[C@@H]3[C@H](O)C=C4C[C@@H](O)CC[C@]4(C)[C@H]3CC[C@]12C

>  <ligand_conf_name>  (1) 
MOL_0_isomer_0_conf_0

>  <ligand_molecule_name>  (1) 
MOL_0_isomer_0

$$$$
