MOL_0_isomer_0_conf_0
     RDKit          3D

 50 52  0  0  0  0  0  0  0  0999 V2000
    5.2348   -2.4952    2.0734 O   0  0  0  0  0  0  0  0  0  0  0  0
    3.8342   -2.4181    1.8011 C   0  0  1  0  0  0  0  0  0  0  0  0
    3.1131   -2.2232    3.1356 C   0  0  0  0  0  0  0  0  0  0  0  0
    3.2154   -0.9711    3.7772 C   0  0  0  0  0  0  0  0  0  0  0  0
    2.5801   -0.7267    4.9910 C   0  0  0  0  0  0  0  0  0  0  0  0
    1.8320   -1.7321    5.5902 C   0  0  0  0  0  0  0  0  0  0  0  0
    1.7330   -2.9901    4.9892 C   0  0  0  0  0  0  0  0  0  0  0  0
    0.7747   -4.1681    5.8178 Cl  0  0  0  0  0  0  0  0  0  0  0  0
    2.3836   -3.2662    3.7677 C   0  0  0  0  0  0  0  0  0  0  0  0
    2.2931   -4.6275    3.1233 C   0  0  0  0  0  0  0  0  0  0  0  0
    3.5332   -1.3203    0.7287 C   0  0  2  0  0  0  0  0  0  0  0  0
    2.0914   -1.0358    0.6358 N   0  0  0  0  0  0  0  0  0  0  0  0
    1.6188    0.2245    0.3482 C   0  0  0  0  0  0  0  0  0  0  0  0
    2.3307    1.1984    0.1403 O   0  0  0  0  0  0  0  0  0  0  0  0
    0.1495    0.3523    0.2370 C   0  0  0  0  0  0  0  0  0  0  0  0
   -0.3783    1.0377   -0.8691 C   0  0  0  0  0  0  0  0  0  0  0  0
   -1.7671    1.2019   -1.0205 C   0  0  0  0  0  0  0  0  0  0  0  0
   -2.6489    0.7018   -0.0611 C   0  0  0  0  0  0  0  0  0  0  0  0
   -2.1021    0.0553    1.0285 C   0  0  0  0  0  0  0  0  0  0  0  0
   -0.7293   -0.1325    1.1927 C   0  0  0  0  0  0  0  0  0  0  0  0
   -0.4864   -0.8224    2.5024 C   0  0  0  0  0  0  0  0  0  0  0  0
   -1.9055   -1.0060    3.0478 C   0  0  0  0  0  0  0  0  0  0  0  0
   -2.2198   -1.5283    4.1034 O   0  0  0  0  0  0  0  0  0  0  0  0
   -2.7823   -0.4704    2.1145 N   0  0  0  0  0  0  0  0  0  0  0  0
    4.0348   -1.7021   -0.6846 C   0  0  0  0  0  0  0  0  0  0  0  0
    5.5450   -1.8641   -0.8711 C   0  0  0  0  0  0  0  0  0  0  0  0
    6.3399   -0.6128   -0.5336 C   0  0  0  0  0  0  0  0  0  0  0  0
    5.3508   -2.7006    3.0172 H   0  0  0  0  0  0  0  0  0  0  0  0
    3.5494   -3.3767    1.3589 H   0  0  0  0  0  0  0  0  0  0  0  0
    3.7951   -0.1664    3.3252 H   0  0  0  0  0  0  0  0  0  0  0  0
    2.6629    0.2489    5.4639 H   0  0  0  0  0  0  0  0  0  0  0  0
    1.3250   -1.5319    6.5315 H   0  0  0  0  0  0  0  0  0  0  0  0
    3.2935   -4.9923    2.8666 H   0  0  0  0  0  0  0  0  0  0  0  0
    1.6787   -4.5706    2.2187 H   0  0  0  0  0  0  0  0  0  0  0  0
    1.8579   -5.3923    3.7701 H   0  0  0  0  0  0  0  0  0  0  0  0
    4.0346   -0.3905    1.0213 H   0  0  0  0  0  0  0  0  0  0  0  0
    1.4442   -1.8119    0.6715 H   0  0  0  0  0  0  0  0  0  0  0  0
    0.2950    1.4511   -1.6191 H   0  0  0  0  0  0  0  0  0  0  0  0
   -2.1526    1.7348   -1.8872 H   0  0  0  0  0  0  0  0  0  0  0  0
   -3.7194    0.8389   -0.1658 H   0  0  0  0  0  0  0  0  0  0  0  0
    0.0853   -0.1902    3.1850 H   0  0  0  0  0  0  0  0  0  0  0  0
   -0.0336   -1.8062    2.3667 H   0  0  0  0  0  0  0  0  0  0  0  0
   -3.7825   -0.4611    2.2495 H   0  0  0  0  0  0  0  0  0  0  0  0
    3.6907   -0.9414   -1.3989 H   0  0  0  0  0  0  0  0  0  0  0  0
    3.5463   -2.6354   -0.9954 H   0  0  0  0  0  0  0  0  0  0  0  0
    5.9194   -2.7132   -0.2913 H   0  0  0  0  0  0  0  0  0  0  0  0
    5.7310   -2.1151   -1.9229 H   0  0  0  0  0  0  0  0  0  0  0  0
    7.3938   -0.7570   -0.7923 H   0  0  0  0  0  0  0  0  0  0  0  0
    5.9692    0.2509   -1.0946 H   0  0  0  0  0  0  0  0  0  0  0  0
    6.2914   -0.3786    0.5335 H   0  0  0  0  0  0  0  0  0  0  0  0
 28  1  1  0
  1  2  1  0
  2 29  1  6
  2  3  1  0
  3  4  2  0
  4 30  1  0
  4  5  1  0
  5 31  1  0
  5  6  2  0
  6 32  1  0
  6  7  1  0
  7  8  1  0
  3  9  1  0
  7  9  2  0
  9 10  1  0
 10 33  1  0
 10 34  1  0
 10 35  1  0
  2 11  1  0
 11 36  1  1
 11 12  1  0
 12 37  1  0
 12 13  1  0
 13 14  2  0
 13 15  1  0
 15 16  2  0
 16 38  1  0
 16 17  1  0
 17 39  1  0
 17 18  2  0
 18 40  1  0
 18 19  1  0
 15 20  1  0
 19 20  2  0
 20 21  1  0
 21 41  1  0
 21 42  1  0
 21 22  1  0
 22 23  2  0
 19 24  1  0
 22 24  1  0
 24 43  1  0
 11 25  1  0
 25 44  1  0
 25 45  1  0
 25 26  1  0
 26 46  1  0
 26 47  1  0
 26 27  1  0
 27 48  1  0
 27 49  1  0
 27 50  1  0
M  END
>  <conformer_energy>  (1) 
53.15

>  <ligand_smiles>  (1) 
CCC[C@@H](NC(=O)c1cccc2c1CC(=O)N2)[C@@H](O)c1cccc(Cl)c1C

>  <ligand_conf_name>  (1) 
MOL_0_isomer_0_conf_0

>  <ligand_molecule_name>  (1) 
MOL_0_isomer_0

$$$$
