MOL_0_isomer_0_conf_0
     RDKit          3D

 27 29  0  0  0  0  0  0  0  0999 V2000
   -0.2121    2.0976   -2.4941 C   0  0  0  0  0  0  0  0  0  0  0  0
   -1.3728    1.4129   -2.8987 C   0  0  0  0  0  0  0  0  0  0  0  0
   -1.7401    0.2021   -2.3024 C   0  0  0  0  0  0  0  0  0  0  0  0
   -0.9255   -0.3022   -1.3036 C   0  0  0  0  0  0  0  0  0  0  0  0
    0.2228    0.3923   -0.9124 C   0  0  0  0  0  0  0  0  0  0  0  0
    0.6041    1.5857   -1.4844 C   0  0  0  0  0  0  0  0  0  0  0  0
    0.8762   -0.3016    0.0955 N   0  0  0  0  0  0  0  0  0  0  0  0
    0.2095   -1.4700    0.4097 C   0  0  0  0  0  0  0  0  0  0  0  0
    0.5407   -2.3217    1.2188 O   0  0  0  0  0  0  0  0  0  0  0  0
   -1.0434   -1.5497   -0.4806 C   0  0  1  0  0  0  0  0  0  0  0  0
   -2.3138   -1.6691    0.3507 C   0  0  0  0  0  0  0  0  0  0  0  0
   -2.3833   -3.1391    0.7445 C   0  0  0  0  0  0  0  0  0  0  0  0
   -1.5379   -3.8665   -0.2613 N   0  0  0  0  0  4  0  0  0  0  0  0
   -1.0035   -2.8589   -1.2462 C   0  0  0  0  0  0  0  0  0  0  0  0
    0.0486    3.0400   -2.9738 H   0  0  0  0  0  0  0  0  0  0  0  0
   -1.9931    1.8402   -3.6858 H   0  0  0  0  0  0  0  0  0  0  0  0
   -2.6453   -0.3025   -2.6256 H   0  0  0  0  0  0  0  0  0  0  0  0
    1.4972    2.1163   -1.1725 H   0  0  0  0  0  0  0  0  0  0  0  0
    1.7343   -0.0033    0.5429 H   0  0  0  0  0  0  0  0  0  0  0  0
   -2.3149   -1.0229    1.2354 H   0  0  0  0  0  0  0  0  0  0  0  0
   -3.2001   -1.4108   -0.2424 H   0  0  0  0  0  0  0  0  0  0  0  0
   -3.3981   -3.5425    0.6896 H   0  0  0  0  0  0  0  0  0  0  0  0
   -1.9540   -3.3337    1.7317 H   0  0  0  0  0  0  0  0  0  0  0  0
   -2.0363   -4.6428   -0.7166 H   0  0  0  0  0  0  0  0  0  0  0  0
   -0.7370   -4.2803    0.2471 H   0  0  0  0  0  0  0  0  0  0  0  0
   -0.0075   -3.1908   -1.5552 H   0  0  0  0  0  0  0  0  0  0  0  0
   -1.6855   -2.8724   -2.1031 H   0  0  0  0  0  0  0  0  0  0  0  0
 15  1  1  0
  1  2  2  0
  2 16  1  0
  2  3  1  0
  3 17  1  0
  3  4  2  0
  4  5  1  0
  1  6  1  0
  5  6  2  0
  6 18  1  0
  5  7  1  0
  7 19  1  0
  7  8  1  0
  8  9  2  0
  4 10  1  0
  8 10  1  0
 10 11  1  1
 11 20  1  0
 11 21  1  0
 11 12  1  0
 12 22  1  0
 12 23  1  0
 12 13  1  0
 13 24  1  0
 13 25  1  0
 10 14  1  0
 13 14  1  0
 14 26  1  0
 14 27  1  0
M  CHG  1  13   1
M  END
>  <conformer_energy>  (1) 
12.13

>  <ligand_smiles>  (1) 
O=C1Nc2ccccc2[C@]12CC[NH2+]C2

>  <ligand_conf_name>  (1) 
MOL_0_isomer_0_conf_0

>  <ligand_molecule_name>  (1) 
MOL_0_isomer_0

$$$$
