1KE5 - prepared_ligand_chiral_N_isomer_0_conf_0
     RDKit          3D

 38 40  0  0  0  0  0  0  0  0999 V2000
    6.6805   -1.6072    0.0057 C   0  0  0  0  0  0  0  0  0  0  0  0
    8.0153   -1.6398    0.1111 C   0  0  0  0  0  0  0  0  0  0  0  0
    8.8573   -0.4537    0.4880 C   0  0  0  0  0  0  0  0  0  0  0  0
    8.4709    0.6715    0.7451 O   0  0  0  0  0  0  0  0  0  0  0  0
   10.1610   -0.9252    0.4778 N   0  0  0  0  0  0  0  0  0  0  0  0
   10.2070   -2.2756    0.1342 C   0  0  0  0  0  0  0  0  0  0  0  0
   11.3325   -3.0659    0.0263 C   0  0  0  0  0  0  0  0  0  0  0  0
   11.1435   -4.4025   -0.3343 C   0  0  0  0  0  0  0  0  0  0  0  0
    9.8521   -4.9097   -0.5752 C   0  0  0  0  0  0  0  0  0  0  0  0
    8.7236   -4.0899   -0.4599 C   0  0  0  0  0  0  0  0  0  0  0  0
    8.9184   -2.7687   -0.1025 C   0  0  0  0  0  0  0  0  0  0  0  0
    5.8669   -0.5205    0.2121 N   0  0  0  0  0  0  0  0  0  0  0  0
    4.4698   -0.4110    0.1320 C   0  0  0  0  0  0  0  0  0  0  0  0
    3.6205   -1.4859   -0.1644 C   0  0  0  0  0  0  0  0  0  0  0  0
    2.2326   -1.3152   -0.2336 C   0  0  0  0  0  0  0  0  0  0  0  0
    1.6804   -0.0563    0.0004 C   0  0  0  0  0  0  0  0  0  0  0  0
   -0.0736    0.1789   -0.0970 S   0  0  0  0  0  6  0  0  0  0  0  0
   -0.3112    1.4484   -0.7475 O   0  0  0  0  0  0  0  0  0  0  0  0
   -0.6902   -1.0437   -0.5619 O   0  0  0  0  0  0  0  0  0  0  0  0
   -0.4896    0.3909    1.5150 N   0  0  0  0  0  0  0  0  0  0  0  0
   -0.6876   -0.7865    2.3482 C   0  0  0  0  0  0  0  0  0  0  0  0
    2.5024    1.0335    0.2836 C   0  0  0  0  0  0  0  0  0  0  0  0
    3.8864    0.8493    0.3508 C   0  0  0  0  0  0  0  0  0  0  0  0
    6.1558   -2.5137   -0.2741 H   0  0  0  0  0  0  0  0  0  0  0  0
   10.9555   -0.3436    0.6945 H   0  0  0  0  0  0  0  0  0  0  0  0
   12.3259   -2.6744    0.2114 H   0  0  0  0  0  0  0  0  0  0  0  0
   12.0038   -5.0618   -0.4315 H   0  0  0  0  0  0  0  0  0  0  0  0
    9.7317   -5.9545   -0.8554 H   0  0  0  0  0  0  0  0  0  0  0  0
    7.7327   -4.4884   -0.6479 H   0  0  0  0  0  0  0  0  0  0  0  0
    6.3658    0.3370    0.4641 H   0  0  0  0  0  0  0  0  0  0  0  0
    4.0174   -2.4788   -0.3486 H   0  0  0  0  0  0  0  0  0  0  0  0
    1.5990   -2.1667   -0.4712 H   0  0  0  0  0  0  0  0  0  0  0  0
   -1.0789    1.2075    1.6687 H   0  0  0  0  0  0  0  0  0  0  0  0
   -1.6702   -1.2255    2.1559 H   0  0  0  0  0  0  0  0  0  0  0  0
   -0.6481   -0.4879    3.3998 H   0  0  0  0  0  0  0  0  0  0  0  0
    0.0921   -1.5342    2.1827 H   0  0  0  0  0  0  0  0  0  0  0  0
    2.0784    2.0208    0.4500 H   0  0  0  0  0  0  0  0  0  0  0  0
    4.5161    1.7086    0.5734 H   0  0  0  0  0  0  0  0  0  0  0  0
 24  1  1  0
  1  2  2  0
  2  3  1  0
  3  4  2  0
  3  5  1  0
  5 25  1  0
  5  6  1  0
  6  7  1  0
  7 26  1  0
  7  8  2  0
  8 27  1  0
  8  9  1  0
  9 28  1  0
  9 10  2  0
 10 29  1  0
  6 11  2  0
  2 11  1  0
 10 11  1  0
  1 12  1  0
 12 30  1  0
 12 13  1  0
 13 14  2  0
 14 31  1  0
 14 15  1  0
 15 32  1  0
 15 16  2  0
 16 17  1  0
 17 18  2  0
 17 19  2  0
 17 20  1  0
 20 33  1  0
 20 21  1  0
 21 34  1  0
 21 35  1  0
 21 36  1  0
 16 22  1  0
 22 37  1  0
 13 23  1  0
 22 23  2  0
 23 38  1  0
M  END
>  <conformer_energy>  (1) 
-14.18

>  <ligand_smiles>  (1) 
CNS(=O)(=O)c1ccc(N/C=C2\C(=O)Nc3ccccc32)cc1

>  <ligand_conf_name>  (1) 
1KE5 - prepared_ligand_chiral_N_isomer_0_conf_0

>  <ligand_molecule_name>  (1) 
1KE5 - prepared_ligand_chiral_N_isomer_0

>  <fragInfo>  (1) 
1 2 3 4 5 6 7 8 9 10 11 24 25 26 27 28 29
12 30
13 14 15 16 22 23 31 32 37 38
17 18 19
20 21 33 34 35 36


>  <torsionInfo>  (1) 
1 12 0 1
12 13 1 2
16 17 2 3
17 20 3 4


>  <atomInfo>  (1) 
1  0.014500  C 
2  0.064982  C 
3  0.257347  C 
4  -0.268841 OA
5  -0.321341 N 
6  0.049134  A 
7  -0.037881 A 
8  -0.060157 A 
9  -0.061494 A 
10 -0.052031 A 
11 0.012274  A 
12 -0.360864 N 
13 0.038032  A 
14 -0.037286 A 
15 -0.040065 A 
16 0.082123  A 
17 0.239809  S 
18 -0.207114 OA
19 -0.207114 OA
20 -0.214237 NA
21 -0.000763 C 
22 -0.040065 A 
23 -0.037286 A 
24 0.082429  H 
25 0.169822  HD
26 0.064493  H 
27 0.062346  H 
28 0.062293  H 
29 0.063006  H 
30 0.165933  HD
31 0.064513  H 
32 0.063768  H 
33 0.140514  HD
34 0.040314  H 
35 0.040314  H 
36 0.040314  H 
37 0.063768  H 
38 0.064513  H 


$$$$
