MOL_0_isomer_0_conf_0
     RDKit          3D

 31 33  0  0  0  0  0  0  0  0999 V2000
    3.4792   -2.0591    1.9971 C   0  0  0  0  0  0  0  0  0  0  0  0
    3.8319   -2.5620    0.5902 C   0  0  0  0  0  0  0  0  0  0  0  0
    4.6398   -1.3931   -0.0046 C   0  0  2  0  0  0  0  0  0  0  0  0
    5.4080   -0.9140    1.2335 C   0  0  0  0  0  0  0  0  0  0  0  0
    4.1279   -0.6626    2.0403 C   0  0  1  0  0  0  0  0  0  0  0  0
    3.4013    0.3361    1.1195 C   0  0  2  0  0  0  0  0  0  0  0  0
    1.9000    0.3248    1.1622 C   0  0  0  0  0  0  0  0  0  0  0  0
    1.2580    0.6017    2.1669 O   0  0  0  0  0  0  0  0  0  0  0  0
    1.4303   -0.0988   -0.0529 N   0  0  0  0  0  0  0  0  0  0  0  0
    0.0071   -0.0111   -0.4199 C   0  0  1  0  0  0  0  0  0  0  0  0
   -0.2929    1.2191   -1.3314 C   0  0  0  0  0  0  0  0  0  0  0  0
   -1.3908    1.1870   -1.9588 O   0  0  0  0  0  0  0  0  0  0  0  0
    0.5866    2.1339   -1.3120 O   0  0  0  0  0  1  0  0  0  0  0  0
   -0.5233   -1.3161   -1.0037 C   0  0  0  0  0  0  0  0  0  0  0  0
    2.4247   -0.4282   -0.9378 C   0  0  0  0  0  0  0  0  0  0  0  0
    2.3227   -0.9180   -2.0540 O   0  0  0  0  0  0  0  0  0  0  0  0
    3.7516   -0.1652   -0.2833 C   0  0  2  0  0  0  0  0  0  0  0  0
    3.9321   -2.7151    2.7500 H   0  0  0  0  0  0  0  0  0  0  0  0
    2.4009   -2.0479    2.1771 H   0  0  0  0  0  0  0  0  0  0  0  0
    2.9448   -2.8241    0.0073 H   0  0  0  0  0  0  0  0  0  0  0  0
    4.4557   -3.4607    0.6628 H   0  0  0  0  0  0  0  0  0  0  0  0
    5.2593   -1.6847   -0.8554 H   0  0  0  0  0  0  0  0  0  0  0  0
    6.0519   -1.6850    1.6701 H   0  0  0  0  0  0  0  0  0  0  0  0
    5.9943   -0.0059    1.0560 H   0  0  0  0  0  0  0  0  0  0  0  0
    4.2804   -0.2883    3.0548 H   0  0  0  0  0  0  0  0  0  0  0  0
    3.7660    1.3588    1.2687 H   0  0  0  0  0  0  0  0  0  0  0  0
   -0.5524    0.1828    0.5047 H   0  0  0  0  0  0  0  0  0  0  0  0
   -0.1597   -1.4851   -2.0223 H   0  0  0  0  0  0  0  0  0  0  0  0
   -1.6178   -1.3050   -1.0507 H   0  0  0  0  0  0  0  0  0  0  0  0
   -0.2238   -2.1715   -0.3888 H   0  0  0  0  0  0  0  0  0  0  0  0
    4.2936    0.6031   -0.8464 H   0  0  0  0  0  0  0  0  0  0  0  0
 18  1  1  0
  1 19  1  0
  1  2  1  0
  2 20  1  0
  2 21  1  0
  2  3  1  0
  3 22  1  6
  3  4  1  0
  4 23  1  0
  4 24  1  0
  1  5  1  0
  4  5  1  0
  5 25  1  1
  5  6  1  0
  6 26  1  6
  6  7  1  0
  7  8  2  0
  7  9  1  0
  9 10  1  0
 10 27  1  1
 10 11  1  0
 11 12  2  0
 11 13  1  0
 10 14  1  0
 14 28  1  0
 14 29  1  0
 14 30  1  0
  9 15  1  0
 15 16  2  0
  3 17  1  0
  6 17  1  0
 15 17  1  0
 17 31  1  6
M  CHG  1  13  -1
M  END
>  <conformer_energy>  (1) 
25.07

>  <ligand_smiles>  (1) 
C[C@H](C(=O)[O-])N1C(=O)[C@@H]2[C@@H]3CC[C@@H](C3)[C@@H]2C1=O

>  <ligand_conf_name>  (1) 
MOL_0_isomer_0_conf_0

>  <ligand_molecule_name>  (1) 
MOL_0_isomer_0

$$$$
