1W2G - prepared_ligand2_conf_0
     RDKit          3D

 31 32  0  0  0  0  0  0  0  0999 V2000
   -0.7031   -0.5410    0.8802 O   0  0  0  0  0  0  0  0  0  0  0  0
    0.0068   -0.3608   -0.3440 C   0  0  0  0  0  0  0  0  0  0  0  0
    1.4708   -0.0207   -0.0786 C   0  0  1  0  0  0  0  0  0  0  0  0
    1.5669    1.0323    0.9026 O   0  0  0  0  0  0  0  0  0  0  0  0
    2.8333    0.8754    1.5798 C   0  0  1  0  0  0  0  0  0  0  0  0
    2.6572    0.9262    3.0282 N   0  0  0  0  0  0  0  0  0  0  0  0
    1.5523    0.3706    3.6437 C   0  0  0  0  0  0  0  0  0  0  0  0
    1.3809    0.3832    4.9712 C   0  0  0  0  0  0  0  0  0  0  0  0
    0.2029   -0.2053    5.6752 C   0  0  0  0  0  0  0  0  0  0  0  0
    2.4292    1.0186    5.8015 C   0  0  0  0  0  0  0  0  0  0  0  0
    2.3416    1.0843    7.0225 O   0  0  0  0  0  0  0  0  0  0  0  0
    3.5036    1.5162    5.1237 N   0  0  0  0  0  0  0  0  0  0  0  0
    3.6902    1.4880    3.7683 C   0  0  0  0  0  0  0  0  0  0  0  0
    4.7274    1.9300    3.2782 O   0  0  0  0  0  0  0  0  0  0  0  0
    3.4592   -0.4336    1.1035 C   0  0  0  0  0  0  0  0  0  0  0  0
    2.2891   -1.1712    0.4916 C   0  0  2  0  0  0  0  0  0  0  0  0
    2.6992   -2.1092   -0.4899 O   0  0  0  0  0  0  0  0  0  0  0  0
   -0.6651    0.3267    1.3255 H   0  0  0  0  0  0  0  0  0  0  0  0
   -0.0902   -1.2691   -0.9460 H   0  0  0  0  0  0  0  0  0  0  0  0
   -0.4812    0.4608   -0.8789 H   0  0  0  0  0  0  0  0  0  0  0  0
    1.9208    0.3349   -1.0147 H   0  0  0  0  0  0  0  0  0  0  0  0
    3.4640    1.7153    1.2660 H   0  0  0  0  0  0  0  0  0  0  0  0
    0.8118   -0.0922    3.0008 H   0  0  0  0  0  0  0  0  0  0  0  0
   -0.3298    0.5650    6.2423 H   0  0  0  0  0  0  0  0  0  0  0  0
    0.5225   -0.9902    6.3684 H   0  0  0  0  0  0  0  0  0  0  0  0
   -0.5085   -0.6521    4.9725 H   0  0  0  0  0  0  0  0  0  0  0  0
    4.2362    1.9356    5.6740 H   0  0  0  0  0  0  0  0  0  0  0  0
    4.2209   -0.2273    0.3408 H   0  0  0  0  0  0  0  0  0  0  0  0
    3.9564   -1.0073    1.8924 H   0  0  0  0  0  0  0  0  0  0  0  0
    1.7357   -1.7062    1.2711 H   0  0  0  0  0  0  0  0  0  0  0  0
    3.3240   -1.6839   -1.1021 H   0  0  0  0  0  0  0  0  0  0  0  0
 18  1  1  0
  1  2  1  0
  2 19  1  0
  2 20  1  0
  2  3  1  0
  3 21  1  6
  3  4  1  0
  4  5  1  0
  5 22  1  6
  5  6  1  0
  6  7  1  0
  7 23  1  0
  7  8  2  0
  8  9  1  0
  9 24  1  0
  9 25  1  0
  9 26  1  0
  8 10  1  0
 10 11  2  0
 10 12  1  0
 12 27  1  0
  6 13  1  0
 12 13  1  0
 13 14  2  0
  5 15  1  0
 15 28  1  0
 15 29  1  0
  3 16  1  0
 15 16  1  0
 16 30  1  1
 16 17  1  0
 17 31  1  0
M  END
>  <conformer_energy>  (1) 
-59.02

>  <ligand_smiles>  (1) 
Cc1cn([C@H]2C[C@H](O)[C@@H](CO)O2)c(=O)[nH]c1=O

>  <ligand_conf_name>  (1) 
1W2G - prepared_ligand2_conf_0

>  <ligand_molecule_name>  (1) 
1W2G - prepared_ligand2

>  <fragInfo>  (1) 
6 7 8 9 10 11 12 13 14 23 24 25 26 27
1 2 18 19 20
3 4 5 15 16 17 21 22 28 29 30 31


>  <torsionInfo>  (1) 
5 6 2 0
2 3 1 2


>  <atomInfo>  (1) 
1  -0.393569 OA
2  0.072005  C 
3  0.109133  C 
4  -0.349437 OA
5  0.140925  C 
6  -0.273538 N 
7  0.019676  A 
8  0.030752  A 
9  -0.032827 C 
10 0.255904  A 
11 -0.269108 OA
12 -0.273704 N 
13 0.329960  A 
14 -0.247694 OA
15 0.021572  C 
16 0.086819  C 
17 -0.390148 OA
18 0.210173  HD
19 0.059231  H 
20 0.059231  H 
21 0.065665  H 
22 0.085258  H 
23 0.082553  H 
24 0.028222  H 
25 0.028222  H 
26 0.028222  H 
27 0.174696  HD
28 0.034073  H 
29 0.034073  H 
30 0.063076  H 
31 0.210586  HD


$$$$
