MOL_0_isomer_0_conf_0
     RDKit          3D

 66 70  0  0  0  0  0  0  0  0999 V2000
   12.3375    0.0140   -2.8738 C   0  0  0  0  0  0  0  0  0  0  0  0
   11.7594    0.3931   -1.6638 C   0  0  0  0  0  0  0  0  0  0  0  0
   10.3736    0.3525   -1.5075 C   0  0  0  0  0  0  0  0  0  0  0  0
    9.5534   -0.0634   -2.5653 C   0  0  0  0  0  0  0  0  0  0  0  0
    8.0482   -0.0608   -2.4135 C   0  0  0  0  0  0  0  0  0  0  0  0
    7.4442    1.3583   -2.3724 C   0  0  1  0  0  0  0  0  0  0  0  0
    7.5812    2.0644   -3.6945 C   0  0  0  0  0  0  0  0  0  0  0  0
    6.6332    2.2390   -4.5962 N   0  0  0  0  0  0  0  0  0  0  0  0
    7.2279    2.9256   -5.6315 C   0  0  0  0  0  0  0  0  0  0  0  0
    6.3524    3.3260   -7.0373 Cl  0  0  0  0  0  0  0  0  0  0  0  0
    8.5613    3.1842   -5.3576 C   0  0  0  0  0  0  0  0  0  0  0  0
    9.6253    3.8604   -6.0955 C   0  0  0  0  0  0  0  0  0  0  0  0
   10.9068    3.2913   -6.1596 C   0  0  0  0  0  0  0  0  0  0  0  0
   11.9551    3.9218   -6.8470 C   0  0  0  0  0  0  0  0  0  0  0  0
   11.7093    5.1518   -7.4829 C   0  0  0  0  0  0  0  0  0  0  0  0
   12.4563    6.0846   -8.2512 C   0  0  0  0  0  0  0  0  0  0  0  0
   13.7465    5.9503   -8.5694 N   0  0  0  0  0  0  0  0  0  0  0  0
   11.7238    7.1280   -8.6279 N   0  0  0  0  0  0  0  0  0  0  0  0
   10.5107    6.8705   -8.1150 N   0  0  0  0  0  0  0  0  0  0  0  0
   10.4341    5.6991   -7.4101 C   0  0  0  0  0  0  0  0  0  0  0  0
    9.3733    5.0880   -6.7297 C   0  0  0  0  0  0  0  0  0  0  0  0
    8.7558    2.6388   -4.1086 N   0  0  0  0  0  0  0  0  0  0  0  0
    6.0149    1.3160   -2.0933 N   0  0  0  0  0  0  0  0  0  0  0  0
    5.5111    1.0975   -0.8398 C   0  0  0  0  0  0  0  0  0  0  0  0
    6.2211    0.9013    0.1407 O   0  0  0  0  0  0  0  0  0  0  0  0
    3.9865    1.1043   -0.7785 C   0  0  2  0  0  0  0  0  0  0  0  0
    3.4989    1.2142    0.6711 C   0  0  0  0  0  0  0  0  0  0  0  0
    1.9770    1.1381    0.7752 C   0  0  0  0  0  0  0  0  0  0  0  0
    1.4282   -0.1423    0.1257 C   0  0  1  0  0  0  0  0  0  0  0  0
   -0.1024   -0.2137    0.1699 C   0  0  0  0  0  0  0  0  0  0  0  0
   -0.5842   -0.2907    1.5704 N   0  0  0  0  0  4  0  0  0  0  0  0
    1.9075   -0.2402   -1.3316 C   0  0  0  0  0  0  0  0  0  0  0  0
    3.4287   -0.1598   -1.4436 C   0  0  0  0  0  0  0  0  0  0  0  0
   10.1454   -0.4520   -3.7754 C   0  0  0  0  0  0  0  0  0  0  0  0
   11.5316   -0.4119   -3.9277 C   0  0  0  0  0  0  0  0  0  0  0  0
   13.4185    0.0371   -2.9905 H   0  0  0  0  0  0  0  0  0  0  0  0
   12.3910    0.7108   -0.8373 H   0  0  0  0  0  0  0  0  0  0  0  0
    9.9398    0.6405   -0.5510 H   0  0  0  0  0  0  0  0  0  0  0  0
    7.8028   -0.6065   -1.4932 H   0  0  0  0  0  0  0  0  0  0  0  0
    7.5899   -0.6418   -3.2256 H   0  0  0  0  0  0  0  0  0  0  0  0
    7.9179    1.9585   -1.5856 H   0  0  0  0  0  0  0  0  0  0  0  0
   11.1107    2.3322   -5.6874 H   0  0  0  0  0  0  0  0  0  0  0  0
   12.9383    3.4639   -6.8904 H   0  0  0  0  0  0  0  0  0  0  0  0
   14.1948    6.6683   -9.1254 H   0  0  0  0  0  0  0  0  0  0  0  0
   14.3197    5.1638   -8.3006 H   0  0  0  0  0  0  0  0  0  0  0  0
    9.7698    7.5406   -8.2836 H   0  0  0  0  0  0  0  0  0  0  0  0
    8.3967    5.5602   -6.6897 H   0  0  0  0  0  0  0  0  0  0  0  0
    9.6290    2.6350   -3.5957 H   0  0  0  0  0  0  0  0  0  0  0  0
    5.4073    1.5151   -2.8830 H   0  0  0  0  0  0  0  0  0  0  0  0
    3.6337    1.9855   -1.3314 H   0  0  0  0  0  0  0  0  0  0  0  0
    3.9364    0.4115    1.2794 H   0  0  0  0  0  0  0  0  0  0  0  0
    3.8473    2.1577    1.1092 H   0  0  0  0  0  0  0  0  0  0  0  0
    1.7014    1.1810    1.8346 H   0  0  0  0  0  0  0  0  0  0  0  0
    1.5351    2.0199    0.2942 H   0  0  0  0  0  0  0  0  0  0  0  0
    1.8319   -1.0056    0.6732 H   0  0  0  0  0  0  0  0  0  0  0  0
   -0.5723    0.6665   -0.2801 H   0  0  0  0  0  0  0  0  0  0  0  0
   -0.4729   -1.1141   -0.3302 H   0  0  0  0  0  0  0  0  0  0  0  0
   -0.1531   -1.0746    2.0788 H   0  0  0  0  0  0  0  0  0  0  0  0
   -1.6028   -0.4324    1.6011 H   0  0  0  0  0  0  0  0  0  0  0  0
   -0.3858    0.5697    2.0974 H   0  0  0  0  0  0  0  0  0  0  0  0
    1.5670   -1.1847   -1.7729 H   0  0  0  0  0  0  0  0  0  0  0  0
    1.4599    0.5668   -1.9260 H   0  0  0  0  0  0  0  0  0  0  0  0
    3.7108   -0.1901   -2.5030 H   0  0  0  0  0  0  0  0  0  0  0  0
    3.8756   -1.0504   -0.9823 H   0  0  0  0  0  0  0  0  0  0  0  0
    9.5316   -0.7865   -4.6101 H   0  0  0  0  0  0  0  0  0  0  0  0
   11.9847   -0.7208   -4.8670 H   0  0  0  0  0  0  0  0  0  0  0  0
 36  1  1  0
  1  2  2  0
  2 37  1  0
  2  3  1  0
  3 38  1  0
  3  4  2  0
  4  5  1  0
  5 39  1  0
  5 40  1  0
  5  6  1  0
  6 41  1  1
  6  7  1  0
  7  8  2  0
  8  9  1  0
  9 10  1  0
  9 11  2  0
 11 12  1  0
 12 13  2  0
 13 42  1  0
 13 14  1  0
 14 43  1  0
 14 15  2  0
 15 16  1  0
 16 17  1  0
 17 44  1  0
 17 45  1  0
 16 18  2  0
 18 19  1  0
 19 46  1  0
 15 20  1  0
 19 20  1  0
 12 21  1  0
 20 21  2  0
 21 47  1  0
  7 22  1  0
 11 22  1  0
 22 48  1  0
  6 23  1  0
 23 49  1  0
 23 24  1  0
 24 25  2  0
 24 26  1  0
 26 50  1  6
 26 27  1  0
 27 51  1  0
 27 52  1  0
 27 28  1  0
 28 53  1  0
 28 54  1  0
 28 29  1  0
 29 55  1  1
 29 30  1  0
 30 56  1  0
 30 57  1  0
 30 31  1  0
 31 58  1  0
 31 59  1  0
 31 60  1  0
 29 32  1  0
 32 61  1  0
 32 62  1  0
 26 33  1  0
 32 33  1  0
 33 63  1  0
 33 64  1  0
  4 34  1  0
 34 65  1  0
  1 35  1  0
 34 35  2  0
 35 66  1  0
M  CHG  1  31   1
M  END
>  <conformer_energy>  (1) 
-10.23

>  <ligand_smiles>  (1) 
Nc1n[nH]c2cc(-c3[nH]c([C@H](Cc4ccccc4)NC(=O)[C@H]4CC[C@H](C[NH3+])CC4)nc3Cl)ccc12

>  <ligand_conf_name>  (1) 
MOL_0_isomer_0_conf_0

>  <ligand_molecule_name>  (1) 
MOL_0_isomer_0

$$$$
