MOL_0_isomer_0_conf_0
     RDKit          3D

 51 54  0  0  0  0  0  0  0  0999 V2000
   30.8441   -1.0711    5.0452 O   0  0  0  0  0  0  0  0  0  0  0  0
   29.6990   -0.7051    4.3000 C   0  0  1  0  0  0  0  0  0  0  0  0
   28.6268   -1.8132    4.2881 C   0  0  0  0  0  0  0  0  0  0  0  0
   27.2663   -1.0919    4.2900 C   0  0  0  0  0  0  0  0  0  0  0  0
   27.6258    0.3785    4.0893 C   0  0  1  0  0  0  0  0  0  0  0  0
   26.6035    1.4568    4.4644 C   0  0  2  0  0  0  0  0  0  0  0  0
   25.2689    1.2391    3.7390 C   0  0  0  0  0  0  0  0  0  0  0  0
   24.2768    2.3685    4.0010 C   0  0  0  0  0  0  0  0  0  0  0  0
   24.8809    3.7320    3.6465 C   0  0  1  0  0  0  0  0  0  0  0  0
   23.8362    4.8430    3.7837 C   0  0  0  0  0  0  0  0  0  0  0  0
   24.4315    6.1735    3.3854 C   0  0  0  0  0  0  0  0  0  0  0  0
   23.8068    6.9709    2.6863 O   0  0  0  0  0  0  0  0  0  0  0  0
   25.7666    6.5372    3.9902 C   0  0  0  0  0  0  0  0  0  0  0  0
   26.7580    5.3789    3.9040 C   0  0  0  0  0  0  0  0  0  0  0  0
   26.1996    4.0267    4.4338 C   0  0  1  0  0  0  0  0  0  0  0  0
   25.9522    4.1544    5.9575 C   0  0  0  0  0  0  0  0  0  0  0  0
   27.2092    2.8576    4.1243 C   0  0  1  0  0  0  0  0  0  0  0  0
   28.6207    3.0479    4.7427 C   0  0  0  0  0  0  0  0  0  0  0  0
   29.5792    1.8770    4.4569 C   0  0  0  0  0  0  0  0  0  0  0  0
   28.9580    0.5306    4.8502 C   0  0  2  0  0  0  0  0  0  0  0  0
   28.8317    0.4516    6.3925 C   0  0  0  0  0  0  0  0  0  0  0  0
   30.5560   -1.4398    5.8967 H   0  0  0  0  0  0  0  0  0  0  0  0
   30.0301   -0.5208    3.2703 H   0  0  0  0  0  0  0  0  0  0  0  0
   28.7383   -2.4324    3.3908 H   0  0  0  0  0  0  0  0  0  0  0  0
   28.7109   -2.4855    5.1491 H   0  0  0  0  0  0  0  0  0  0  0  0
   26.6160   -1.4678    3.4936 H   0  0  0  0  0  0  0  0  0  0  0  0
   26.7505   -1.2524    5.2432 H   0  0  0  0  0  0  0  0  0  0  0  0
   27.8262    0.4959    3.0108 H   0  0  0  0  0  0  0  0  0  0  0  0
   26.4017    1.3933    5.5386 H   0  0  0  0  0  0  0  0  0  0  0  0
   24.8172    0.2921    4.0567 H   0  0  0  0  0  0  0  0  0  0  0  0
   25.4423    1.1581    2.6582 H   0  0  0  0  0  0  0  0  0  0  0  0
   23.3777    2.1923    3.3976 H   0  0  0  0  0  0  0  0  0  0  0  0
   23.9551    2.3472    5.0486 H   0  0  0  0  0  0  0  0  0  0  0  0
   25.1467    3.6908    2.5782 H   0  0  0  0  0  0  0  0  0  0  0  0
   23.4441    4.9236    4.8021 H   0  0  0  0  0  0  0  0  0  0  0  0
   22.9882    4.6367    3.1199 H   0  0  0  0  0  0  0  0  0  0  0  0
   26.1723    7.4010    3.4519 H   0  0  0  0  0  0  0  0  0  0  0  0
   25.6003    6.8440    5.0276 H   0  0  0  0  0  0  0  0  0  0  0  0
   27.0563    5.2562    2.8540 H   0  0  0  0  0  0  0  0  0  0  0  0
   27.6618    5.6666    4.4533 H   0  0  0  0  0  0  0  0  0  0  0  0
   26.8619    4.4638    6.4825 H   0  0  0  0  0  0  0  0  0  0  0  0
   25.6172    3.2174    6.4091 H   0  0  0  0  0  0  0  0  0  0  0  0
   25.1916    4.9035    6.1950 H   0  0  0  0  0  0  0  0  0  0  0  0
   27.3682    2.8678    3.0340 H   0  0  0  0  0  0  0  0  0  0  0  0
   29.0830    3.9568    4.3422 H   0  0  0  0  0  0  0  0  0  0  0  0
   28.5478    3.1917    5.8248 H   0  0  0  0  0  0  0  0  0  0  0  0
   29.8225    1.8808    3.3864 H   0  0  0  0  0  0  0  0  0  0  0  0
   30.5252    2.0368    4.9881 H   0  0  0  0  0  0  0  0  0  0  0  0
   28.4373   -0.5119    6.7305 H   0  0  0  0  0  0  0  0  0  0  0  0
   28.1763    1.2233    6.8046 H   0  0  0  0  0  0  0  0  0  0  0  0
   29.8115    0.5832    6.8663 H   0  0  0  0  0  0  0  0  0  0  0  0
 22  1  1  0
  1  2  1  0
  2 23  1  6
  2  3  1  0
  3 24  1  0
  3 25  1  0
  3  4  1  0
  4 26  1  0
  4 27  1  0
  4  5  1  0
  5 28  1  6
  5  6  1  0
  6 29  1  1
  6  7  1  0
  7 30  1  0
  7 31  1  0
  7  8  1  0
  8 32  1  0
  8 33  1  0
  8  9  1  0
  9 34  1  6
  9 10  1  0
 10 35  1  0
 10 36  1  0
 10 11  1  0
 11 12  2  0
 11 13  1  0
 13 37  1  0
 13 38  1  0
 13 14  1  0
 14 39  1  0
 14 40  1  0
  9 15  1  0
 14 15  1  0
 15 16  1  1
 16 41  1  0
 16 42  1  0
 16 43  1  0
  6 17  1  0
 15 17  1  0
 17 44  1  6
 17 18  1  0
 18 45  1  0
 18 46  1  0
 18 19  1  0
 19 47  1  0
 19 48  1  0
  5 20  1  0
  2 20  1  0
 19 20  1  0
 20 21  1  1
 21 49  1  0
 21 50  1  0
 21 51  1  0
M  END
>  <conformer_energy>  (1) 
73.40

>  <ligand_smiles>  (1) 
C[C@]12CCC(=O)C[C@@H]1CC[C@@H]1[C@@H]2CC[C@]2(C)[C@@H](O)CC[C@@H]12

>  <ligand_conf_name>  (1) 
MOL_0_isomer_0_conf_0

>  <ligand_molecule_name>  (1) 
MOL_0_isomer_0

$$$$
