MOL_0_isomer_0_conf_0
     RDKit          3D

 22 22  0  0  0  0  0  0  0  0999 V2000
    0.7596    0.7102    3.2025 O   0  0  0  0  0  0  0  0  0  0  0  0
    2.0493    0.5031    2.6539 C   0  0  2  0  0  0  0  0  0  0  0  0
    2.2093    1.1423    1.3892 O   0  0  0  0  0  0  0  0  0  0  0  0
    1.6969    0.4232    0.2437 C   0  0  2  0  0  0  0  0  0  0  0  0
    0.1574    0.4203    0.1483 C   0  0  0  0  0  0  0  0  0  0  0  0
   -0.4360   -0.1268    1.1306 O   0  0  0  0  0  0  0  0  0  0  0  0
   -0.3291    0.9014   -0.9097 O   0  0  0  0  0  1  0  0  0  0  0  0
    2.1969   -1.0214    0.1756 C   0  0  1  0  0  0  0  0  0  0  0  0
    3.6152   -0.9859   -0.1301 O   0  0  0  0  0  0  0  0  0  0  0  0
    2.0305   -1.7963    1.4980 C   0  0  2  0  0  0  0  0  0  0  0  0
    0.7121   -2.3055    1.7006 O   0  0  0  0  0  0  0  0  0  0  0  0
    2.5288   -0.9652    2.6902 C   0  0  1  0  0  0  0  0  0  0  0  0
    3.9786   -0.9832    2.6799 O   0  0  0  0  0  0  0  0  0  0  0  0
    0.1210    0.3325    2.5516 H   0  0  0  0  0  0  0  0  0  0  0  0
    2.7161    1.0628    3.3196 H   0  0  0  0  0  0  0  0  0  0  0  0
    2.0790    0.9762   -0.6234 H   0  0  0  0  0  0  0  0  0  0  0  0
    1.7024   -1.5654   -0.6378 H   0  0  0  0  0  0  0  0  0  0  0  0
    3.6965   -0.4782   -0.9584 H   0  0  0  0  0  0  0  0  0  0  0  0
    2.6690   -2.6872    1.4343 H   0  0  0  0  0  0  0  0  0  0  0  0
    0.0711   -1.5611    1.5634 H   0  0  0  0  0  0  0  0  0  0  0  0
    2.2075   -1.4288    3.6295 H   0  0  0  0  0  0  0  0  0  0  0  0
    4.2309   -0.7469    1.7609 H   0  0  0  0  0  0  0  0  0  0  0  0
 14  1  1  0
  1  2  1  0
  2 15  1  1
  2  3  1  0
  3  4  1  0
  4 16  1  6
  4  5  1  0
  5  6  2  0
  5  7  1  0
  4  8  1  0
  8 17  1  6
  8  9  1  0
  9 18  1  0
  8 10  1  0
 10 19  1  6
 10 11  1  0
 11 20  1  0
  2 12  1  0
 10 12  1  0
 12 21  1  1
 12 13  1  0
 13 22  1  0
M  CHG  1   7  -1
M  END
>  <conformer_energy>  (1) 
95.42

>  <ligand_smiles>  (1) 
O=C([O-])[C@H]1O[C@@H](O)[C@H](O)[C@@H](O)[C@@H]1O

>  <ligand_conf_name>  (1) 
MOL_0_isomer_0_conf_0

>  <ligand_molecule_name>  (1) 
MOL_0_isomer_0

$$$$
