1UOU - prepared_ligand_conf_0
     RDKit          3D

 28 29  0  0  0  0  0  0  0  0999 V2000
    2.2349    2.0118    1.8158 N   0  0  0  0  0  0  0  0  0  0  0  0
    2.4706    1.0140    0.9980 C   0  0  0  0  0  0  0  0  0  0  0  0
    1.6144    0.3340    0.2497 N   0  0  0  0  0  0  0  0  0  0  0  0
    0.1673    0.5479    0.1275 C   0  0  0  0  0  0  0  0  0  0  0  0
   -0.5261   -0.0699    1.3214 C   0  0  0  0  0  0  0  0  0  0  0  0
   -1.0798    0.6338    2.3253 C   0  0  0  0  0  0  0  0  0  0  0  0
   -1.0450    2.3545    2.4169 Cl  0  0  0  0  0  0  0  0  0  0  0  0
   -1.7202   -0.0978    3.4591 C   0  0  0  0  0  0  0  0  0  0  0  0
   -2.1914    0.4818    4.4303 O   0  0  0  0  0  0  0  0  0  0  0  0
   -1.7265   -1.4623    3.3626 N   0  0  0  0  0  0  0  0  0  0  0  0
   -1.1693   -2.1809    2.3503 C   0  0  0  0  0  0  0  0  0  0  0  0
   -1.1678   -3.4040    2.3174 O   0  0  0  0  0  0  0  0  0  0  0  0
   -0.5845   -1.4500    1.3535 N   0  0  0  0  0  0  0  0  0  0  0  0
    2.3184   -0.6702   -0.5714 C   0  0  0  0  0  0  0  0  0  0  0  0
    3.6307   -0.8531    0.1779 C   0  0  0  0  0  0  0  0  0  0  0  0
    3.8542    0.5131    0.8152 C   0  0  0  0  0  0  0  0  0  0  0  0
    1.3072    2.3892    1.9651 H   0  0  0  0  0  0  0  0  0  0  0  0
    2.9912    2.4486    2.3343 H   0  0  0  0  0  0  0  0  0  0  0  0
   -0.0177    1.6202    0.0170 H   0  0  0  0  0  0  0  0  0  0  0  0
   -0.1899    0.0791   -0.7975 H   0  0  0  0  0  0  0  0  0  0  0  0
   -2.1613   -1.9798    4.1141 H   0  0  0  0  0  0  0  0  0  0  0  0
   -0.1954   -2.0191    0.6092 H   0  0  0  0  0  0  0  0  0  0  0  0
    1.7466   -1.6000   -0.6316 H   0  0  0  0  0  0  0  0  0  0  0  0
    2.4732   -0.2576   -1.5735 H   0  0  0  0  0  0  0  0  0  0  0  0
    3.4992   -1.6060    0.9644 H   0  0  0  0  0  0  0  0  0  0  0  0
    4.4551   -1.1704   -0.4658 H   0  0  0  0  0  0  0  0  0  0  0  0
    4.4035    1.1768    0.1390 H   0  0  0  0  0  0  0  0  0  0  0  0
    4.4006    0.4301    1.7589 H   0  0  0  0  0  0  0  0  0  0  0  0
 17  1  1  0
  1 18  1  0
  1  2  1  0
  2  3  2  0
  3  4  1  0
  4 19  1  0
  4 20  1  0
  4  5  1  0
  5  6  2  0
  6  7  1  0
  6  8  1  0
  8  9  2  0
  8 10  1  0
 10 21  1  0
 10 11  1  0
 11 12  2  0
  5 13  1  0
 11 13  1  0
 13 22  1  0
  3 14  1  0
 14 23  1  0
 14 24  1  0
 14 15  1  0
 15 25  1  0
 15 26  1  0
  2 16  1  0
 15 16  1  0
 16 27  1  0
 16 28  1  0
M  CHG  1   3   1
M  END
>  <conformer_energy>  (1) 
-86.77

>  <ligand_smiles>  (1) 
NC1=[N+](Cc2[nH]c(=O)[nH]c(=O)c2Cl)CCC1

>  <ligand_conf_name>  (1) 
1UOU - prepared_ligand_conf_0

>  <ligand_molecule_name>  (1) 
1UOU - prepared_ligand

$$$$
