1T40 - prepared_ligand2_conf_0
     RDKit          3D

 37 39  0  0  0  0  0  0  0  0999 V2000
    2.9403   -3.5812    0.8775 C   0  0  0  0  0  0  0  0  0  0  0  0
    3.7612   -2.4674    0.7108 C   0  0  0  0  0  0  0  0  0  0  0  0
    3.2781   -1.3275    0.0463 C   0  0  0  0  0  0  0  0  0  0  0  0
    4.2118   -0.1777   -0.0741 C   0  0  0  0  0  0  0  0  0  0  0  0
    5.3955   -0.3769   -0.3385 O   0  0  0  0  0  0  0  0  0  0  0  0
    3.6964    1.0619    0.1948 N   0  0  0  0  0  0  0  0  0  0  0  0
    4.4980    2.2545    0.0999 C   0  0  0  0  0  0  0  0  0  0  0  0
    3.7153    3.4574    0.5300 C   0  0  0  0  0  0  0  0  0  0  0  0
    3.2302    4.3708   -0.2883 N   0  0  0  0  0  0  0  0  0  0  0  0
    2.4405    5.2684    0.4178 C   0  0  0  0  0  0  0  0  0  0  0  0
    1.6864    6.3345   -0.1184 C   0  0  0  0  0  0  0  0  0  0  0  0
    1.6841    6.5760   -1.4388 F   0  0  0  0  0  0  0  0  0  0  0  0
    0.9461    7.1593    0.7281 C   0  0  0  0  0  0  0  0  0  0  0  0
    0.2385    8.1773    0.2164 F   0  0  0  0  0  0  0  0  0  0  0  0
    0.9399    6.9618    2.0983 C   0  0  0  0  0  0  0  0  0  0  0  0
    1.6860    5.9223    2.6451 C   0  0  0  0  0  0  0  0  0  0  0  0
    1.6960    5.7596    3.9755 F   0  0  0  0  0  0  0  0  0  0  0  0
    2.4276    5.0802    1.8036 C   0  0  0  0  0  0  0  0  0  0  0  0
    3.4273    3.7403    2.2025 S   0  0  0  0  0  0  0  0  0  0  0  0
    1.9700   -1.3153   -0.4691 C   0  0  0  0  0  0  0  0  0  0  0  0
    1.5645   -0.2348   -1.2094 O   0  0  0  0  0  0  0  0  0  0  0  0
    0.2405    0.2625   -0.9052 C   0  0  0  0  0  0  0  0  0  0  0  0
    0.1112    0.7699    0.5454 C   0  0  0  0  0  0  0  0  0  0  0  0
    1.1474    1.3084    1.0385 O   0  0  0  0  0  0  0  0  0  0  0  0
   -1.0236    0.5917    1.0731 O   0  0  0  0  0  0  0  0  0  0  0  0
    1.1572   -2.4416   -0.3061 C   0  0  0  0  0  0  0  0  0  0  0  0
    1.6470   -3.5555    0.3695 C   0  0  0  0  0  0  0  0  0  0  0  0
    0.8676   -4.6366    0.5118 F   0  0  0  0  0  0  0  0  0  0  0  0
    3.2994   -4.4636    1.3955 H   0  0  0  0  0  0  0  0  0  0  0  0
    4.7750   -2.4750    1.1042 H   0  0  0  0  0  0  0  0  0  0  0  0
    2.7041    1.1515    0.4797 H   0  0  0  0  0  0  0  0  0  0  0  0
    4.8174    2.3643   -0.9425 H   0  0  0  0  0  0  0  0  0  0  0  0
    5.4001    2.1282    0.7093 H   0  0  0  0  0  0  0  0  0  0  0  0
    0.3617    7.6128    2.7439 H   0  0  0  0  0  0  0  0  0  0  0  0
   -0.5262   -0.4759   -1.1605 H   0  0  0  0  0  0  0  0  0  0  0  0
    0.0766    1.1248   -1.5615 H   0  0  0  0  0  0  0  0  0  0  0  0
    0.1529   -2.4820   -0.7107 H   0  0  0  0  0  0  0  0  0  0  0  0
 29  1  1  0
  1  2  2  0
  2 30  1  0
  2  3  1  0
  3  4  1  0
  4  5  2  0
  4  6  1  0
  6 31  1  0
  6  7  1  0
  7 32  1  0
  7 33  1  0
  7  8  1  0
  8  9  2  0
  9 10  1  0
 10 11  2  0
 11 12  1  0
 11 13  1  0
 13 14  1  0
 13 15  2  0
 15 34  1  0
 15 16  1  0
 16 17  1  0
 10 18  1  0
 16 18  2  0
  8 19  1  0
 18 19  1  0
  3 20  2  0
 20 21  1  0
 21 22  1  0
 22 35  1  0
 22 36  1  0
 22 23  1  0
 23 24  2  0
 23 25  1  0
 20 26  1  0
 26 37  1  0
  1 27  1  0
 26 27  2  0
 27 28  1  0
M  CHG  1  25  -1
M  END
>  <conformer_energy>  (1) 
72.89

>  <ligand_smiles>  (1) 
O=C([O-])COc1cc(F)ccc1C(=O)NCc1nc2c(F)c(F)cc(F)c2s1

>  <ligand_conf_name>  (1) 
1T40 - prepared_ligand2_conf_0

>  <ligand_molecule_name>  (1) 
1T40 - prepared_ligand2

$$$$
