MOL_0_isomer_0_conf_0
     RDKit          3D

 53 57  0  0  0  0  0  0  0  0999 V2000
    3.4006    1.6728   -3.7515 N   0  0  0  0  0  0  0  0  0  0  0  0
    4.7747    1.1805   -3.2474 S   0  0  1  0  0  6  0  0  0  0  0  0
    5.8841    0.8870   -4.1337 O   0  0  0  0  0  0  0  0  0  0  0  0
    5.3646    2.3337   -2.0334 C   0  0  0  0  0  0  0  0  0  0  0  0
    4.4236   -0.3400   -2.2663 C   0  0  0  0  0  0  0  0  0  0  0  0
    3.5769   -0.1615   -1.0402 C   0  0  0  0  0  0  0  0  0  0  0  0
    4.1945   -0.0745    0.1546 N   0  0  0  0  0  0  0  0  0  0  0  0
    3.4214    0.0835    1.2423 C   0  0  0  0  0  0  0  0  0  0  0  0
    4.1021    0.1470    2.5432 C   0  0  0  0  0  0  0  0  0  0  0  0
    5.4046   -0.3768    2.7327 C   0  0  0  0  0  0  0  0  0  0  0  0
    6.0585   -0.3265    3.9655 C   0  0  0  0  0  0  0  0  0  0  0  0
    5.4476    0.2537    5.0754 C   0  0  0  0  0  0  0  0  0  0  0  0
    4.1670    0.7804    4.8912 C   0  0  0  0  0  0  0  0  0  0  0  0
    3.4890    0.7447    3.6732 C   0  0  0  0  0  0  0  0  0  0  0  0
    2.2632    1.4008    3.9556 C   0  0  0  0  0  0  0  0  0  0  0  0
    2.1584    1.8022    5.2251 N   0  0  0  0  0  0  0  0  0  0  0  0
    3.3214    1.4100    5.7673 N   0  0  0  0  0  0  0  0  0  0  0  0
    2.0823    0.1701    1.2099 N   0  0  0  0  0  0  0  0  0  0  0  0
    1.4563    0.1025    0.0233 C   0  0  0  0  0  0  0  0  0  0  0  0
    0.0708    0.1972   -0.0013 N   0  0  0  0  0  0  0  0  0  0  0  0
   -0.6192    0.2416    1.3019 C   0  0  0  0  0  0  0  0  0  0  0  0
   -2.1026   -0.1226    1.1536 C   0  0  0  0  0  0  0  0  0  0  0  0
   -2.7510    0.6687    0.1481 O   0  0  0  0  0  0  0  0  0  0  0  0
   -2.1269    0.4392   -1.1226 C   0  0  0  0  0  0  0  0  0  0  0  0
   -0.6368    0.8498   -1.1259 C   0  0  1  0  0  0  0  0  0  0  0  0
   -0.4923    2.3726   -1.0367 C   0  0  0  0  0  0  0  0  0  0  0  0
    2.1958   -0.0814   -1.1287 C   0  0  0  0  0  0  0  0  0  0  0  0
    4.3049   -1.5730   -3.1367 C   0  0  0  0  0  0  0  0  0  0  0  0
    5.5356   -1.3662   -2.2991 C   0  0  0  0  0  0  0  0  0  0  0  0
    3.5153    2.4790   -4.3697 H   0  0  0  0  0  0  0  0  0  0  0  0
    6.2134    1.8872   -1.5114 H   0  0  0  0  0  0  0  0  0  0  0  0
    4.5644    2.5714   -1.3307 H   0  0  0  0  0  0  0  0  0  0  0  0
    5.6876    3.2394   -2.5517 H   0  0  0  0  0  0  0  0  0  0  0  0
    5.9185   -0.8441    1.8927 H   0  0  0  0  0  0  0  0  0  0  0  0
    7.0572   -0.7478    4.0599 H   0  0  0  0  0  0  0  0  0  0  0  0
    5.9520    0.2945    6.0353 H   0  0  0  0  0  0  0  0  0  0  0  0
    1.4436    1.6044    3.2797 H   0  0  0  0  0  0  0  0  0  0  0  0
    3.4842    1.6074    6.7478 H   0  0  0  0  0  0  0  0  0  0  0  0
   -0.5325    1.2523    1.7183 H   0  0  0  0  0  0  0  0  0  0  0  0
   -0.1775   -0.4636    2.0166 H   0  0  0  0  0  0  0  0  0  0  0  0
   -2.2209   -1.1839    0.9028 H   0  0  0  0  0  0  0  0  0  0  0  0
   -2.6228    0.0515    2.1010 H   0  0  0  0  0  0  0  0  0  0  0  0
   -2.2329   -0.6221   -1.3803 H   0  0  0  0  0  0  0  0  0  0  0  0
   -2.6821    1.0117   -1.8733 H   0  0  0  0  0  0  0  0  0  0  0  0
   -0.2363    0.5217   -2.0906 H   0  0  0  0  0  0  0  0  0  0  0  0
    0.5607    2.6718   -1.0677 H   0  0  0  0  0  0  0  0  0  0  0  0
   -0.9998    2.8564   -1.8780 H   0  0  0  0  0  0  0  0  0  0  0  0
   -0.9225    2.7720   -0.1124 H   0  0  0  0  0  0  0  0  0  0  0  0
    1.7288   -0.1717   -2.1006 H   0  0  0  0  0  0  0  0  0  0  0  0
    4.3997   -1.4665   -4.2123 H   0  0  0  0  0  0  0  0  0  0  0  0
    3.6192   -2.3575   -2.8376 H   0  0  0  0  0  0  0  0  0  0  0  0
    5.6698   -2.0045   -1.4321 H   0  0  0  0  0  0  0  0  0  0  0  0
    6.4650   -1.1394   -2.8086 H   0  0  0  0  0  0  0  0  0  0  0  0
 30  1  1  0
  1  2  2  0
  2  3  2  0
  2  4  1  1
  4 31  1  0
  4 32  1  0
  4 33  1  0
  2  5  1  0
  5  6  1  0
  6  7  2  0
  7  8  1  0
  8  9  1  0
  9 10  2  0
 10 34  1  0
 10 11  1  0
 11 35  1  0
 11 12  2  0
 12 36  1  0
 12 13  1  0
  9 14  1  0
 13 14  2  0
 14 15  1  0
 15 37  1  0
 15 16  2  0
 13 17  1  0
 16 17  1  0
 17 38  1  0
  8 18  2  0
 18 19  1  0
 19 20  1  0
 20 21  1  0
 21 39  1  0
 21 40  1  0
 21 22  1  0
 22 41  1  0
 22 42  1  0
 22 23  1  0
 23 24  1  0
 24 43  1  0
 24 44  1  0
 20 25  1  0
 24 25  1  0
 25 45  1  6
 25 26  1  0
 26 46  1  0
 26 47  1  0
 26 48  1  0
  6 27  1  0
 19 27  2  0
 27 49  1  0
  5 28  1  0
 28 50  1  0
 28 51  1  0
  5 29  1  0
 28 29  1  0
 29 52  1  0
 29 53  1  0
M  END
>  <conformer_energy>  (1) 
64.43

>  <ligand_smiles>  (1) 
[H]N=[S@](C)(=O)C1(c2cc(N3CCOC[C@H]3C)nc(-c3cccc4[nH]ncc34)n2)CC1

>  <ligand_conf_name>  (1) 
MOL_0_isomer_0_conf_0

>  <ligand_molecule_name>  (1) 
MOL_0_isomer_0

$$$$
