MOL_0_isomer_0_conf_0
     RDKit          3D

 48 51  0  0  0  0  0  0  0  0999 V2000
    7.0284   -0.9542   -1.8361 O   0  0  0  0  0  0  0  0  0  0  0  0
    6.1455    0.0136   -1.2625 C   0  0  1  0  0  0  0  0  0  0  0  0
    6.5166    0.1140    0.1867 C   0  0  0  0  0  0  0  0  0  0  0  0
    7.7784    0.2328    0.5815 N   0  0  0  0  0  0  0  0  0  0  0  0
    7.7527    0.1558    1.9456 C   0  0  0  0  0  0  0  0  0  0  0  0
    8.7828    0.1953    2.9027 C   0  0  0  0  0  0  0  0  0  0  0  0
    8.5533    0.0539    4.2441 N   0  0  0  0  0  0  0  0  0  0  0  0
    7.2680   -0.1567    4.5758 C   0  0  0  0  0  0  0  0  0  0  0  0
    6.2055   -0.2043    3.7007 C   0  0  0  0  0  0  0  0  0  0  0  0
    5.0214   -0.5070    4.4169 C   0  0  0  0  0  0  0  0  0  0  0  0
    5.4064   -0.5967    5.7452 C   0  0  0  0  0  0  0  0  0  0  0  0
    6.7654   -0.3752    5.8272 N   0  0  0  0  0  0  0  0  0  0  0  0
    6.4501   -0.0159    2.3713 C   0  0  0  0  0  0  0  0  0  0  0  0
    5.6507    0.0476    1.2779 N   0  0  0  0  0  0  0  0  0  0  0  0
    4.1918    0.0794    1.2546 C   0  0  2  0  0  0  0  0  0  0  0  0
    3.5819   -1.2912    0.9316 C   0  0  0  0  0  0  0  0  0  0  0  0
    2.0558   -1.2598    1.0490 C   0  0  0  0  0  0  0  0  0  0  0  0
    1.4447   -0.1532    0.1771 C   0  0  1  0  0  0  0  0  0  0  0  0
   -0.1007   -0.1553    0.1629 C   0  0  0  0  0  0  0  0  0  0  0  0
   -0.8327    0.2632    1.4418 C   0  0  0  0  0  0  0  0  0  0  0  0
   -0.8332   -0.7814    2.4724 C   0  0  0  0  0  0  0  0  0  0  0  0
   -0.8284   -1.6034    3.2912 N   0  0  0  0  0  0  0  0  0  0  0  0
    2.0398    1.2143    0.5494 C   0  0  0  0  0  0  0  0  0  0  0  0
    3.5656    1.2073    0.4130 C   0  0  0  0  0  0  0  0  0  0  0  0
    6.3522    1.3338   -1.9905 C   0  0  0  0  0  0  0  0  0  0  0  0
    7.8888   -0.8127   -1.3912 H   0  0  0  0  0  0  0  0  0  0  0  0
    5.1341   -0.3595   -1.4208 H   0  0  0  0  0  0  0  0  0  0  0  0
    9.8169    0.3327    2.6086 H   0  0  0  0  0  0  0  0  0  0  0  0
    4.0139   -0.6721    4.0664 H   0  0  0  0  0  0  0  0  0  0  0  0
    4.8355   -0.8141    6.6384 H   0  0  0  0  0  0  0  0  0  0  0  0
    7.3289   -0.3961    6.6646 H   0  0  0  0  0  0  0  0  0  0  0  0
    3.8922    0.3389    2.2722 H   0  0  0  0  0  0  0  0  0  0  0  0
    3.9788   -2.0523    1.6147 H   0  0  0  0  0  0  0  0  0  0  0  0
    3.8588   -1.6109   -0.0791 H   0  0  0  0  0  0  0  0  0  0  0  0
    1.6514   -2.2362    0.7585 H   0  0  0  0  0  0  0  0  0  0  0  0
    1.8011   -1.1017    2.1021 H   0  0  0  0  0  0  0  0  0  0  0  0
    1.7476   -0.3651   -0.8592 H   0  0  0  0  0  0  0  0  0  0  0  0
   -0.4504   -1.1472   -0.1533 H   0  0  0  0  0  0  0  0  0  0  0  0
   -0.4142    0.5390   -0.6288 H   0  0  0  0  0  0  0  0  0  0  0  0
   -1.8765    0.4781    1.1803 H   0  0  0  0  0  0  0  0  0  0  0  0
   -0.4246    1.1951    1.8440 H   0  0  0  0  0  0  0  0  0  0  0  0
    1.6239    1.9944   -0.0990 H   0  0  0  0  0  0  0  0  0  0  0  0
    1.7803    1.4794    1.5808 H   0  0  0  0  0  0  0  0  0  0  0  0
    3.9668    2.1781    0.7286 H   0  0  0  0  0  0  0  0  0  0  0  0
    3.8010    1.1007   -0.6475 H   0  0  0  0  0  0  0  0  0  0  0  0
    5.7386    2.1345   -1.5670 H   0  0  0  0  0  0  0  0  0  0  0  0
    6.1010    1.2246   -3.0512 H   0  0  0  0  0  0  0  0  0  0  0  0
    7.4010    1.6511   -1.9506 H   0  0  0  0  0  0  0  0  0  0  0  0
 26  1  1  0
  1  2  1  0
  2 27  1  1
  2  3  1  0
  3  4  2  0
  4  5  1  0
  5  6  2  0
  6 28  1  0
  6  7  1  0
  7  8  2  0
  8  9  1  0
  9 10  1  0
 10 29  1  0
 10 11  2  0
 11 30  1  0
  8 12  1  0
 11 12  1  0
 12 31  1  0
  5 13  1  0
  9 13  2  0
  3 14  1  0
 13 14  1  0
 14 15  1  0
 15 32  1  1
 15 16  1  0
 16 33  1  0
 16 34  1  0
 16 17  1  0
 17 35  1  0
 17 36  1  0
 17 18  1  0
 18 37  1  6
 18 19  1  0
 19 38  1  0
 19 39  1  0
 19 20  1  0
 20 40  1  0
 20 41  1  0
 20 21  1  0
 21 22  3  0
 18 23  1  0
 23 42  1  0
 23 43  1  0
 15 24  1  0
 23 24  1  0
 24 44  1  0
 24 45  1  0
  2 25  1  0
 25 46  1  0
 25 47  1  0
 25 48  1  0
M  END
>  <conformer_energy>  (1) 
78.17

>  <ligand_smiles>  (1) 
C[C@@H](O)c1nc2cnc3[nH]ccc3c2n1[C@H]1CC[C@H](CCC#N)CC1

>  <ligand_conf_name>  (1) 
MOL_0_isomer_0_conf_0

>  <ligand_molecule_name>  (1) 
MOL_0_isomer_0

$$$$
