MOL_0_isomer_0_conf_0
     RDKit          3D

 43 45  0  0  0  0  0  0  0  0999 V2000
    2.9829   -4.6936   -3.6241 O   0  0  0  0  0  0  0  0  0  0  0  0
    1.6873   -5.2779   -3.4917 C   0  0  0  0  0  0  0  0  0  0  0  0
    1.3548   -5.5493   -2.0057 C   0  0  1  0  0  0  0  0  0  0  0  0
    1.2027   -4.3008   -1.2067 N   0  0  0  0  0  4  0  0  0  0  0  0
    2.0912   -3.2316   -1.1282 C   0  0  0  0  0  0  0  0  0  0  0  0
    1.5845   -2.3309   -0.2194 C   0  0  0  0  0  0  0  0  0  0  0  0
    2.0870   -1.0237    0.2696 C   0  0  0  0  0  0  0  0  0  0  0  0
    1.2555    0.1622   -0.2306 C   0  0  0  0  0  0  0  0  0  0  0  0
   -0.1662    0.1528    0.2819 C   0  0  0  0  0  0  0  0  0  0  0  0
   -0.4343    0.3443    1.6447 C   0  0  0  0  0  0  0  0  0  0  0  0
   -1.7444    0.2880    2.1216 C   0  0  0  0  0  0  0  0  0  0  0  0
   -2.7981    0.0483    1.2423 C   0  0  0  0  0  0  0  0  0  0  0  0
   -2.5450   -0.1276   -0.1163 C   0  0  0  0  0  0  0  0  0  0  0  0
   -1.2358   -0.0737   -0.5963 C   0  0  0  0  0  0  0  0  0  0  0  0
    0.4229   -2.9180    0.2465 N   0  0  0  0  0  0  0  0  0  0  0  0
    0.1975   -4.0964   -0.3366 C   0  0  0  0  0  0  0  0  0  0  0  0
   -0.9279   -5.0535   -0.0772 C   0  0  2  0  0  0  0  0  0  0  0  0
   -1.3017   -5.0430    1.3015 O   0  0  0  0  0  0  0  0  0  0  0  0
   -0.5363   -6.4645   -0.5174 C   0  0  1  0  0  0  0  0  0  0  0  0
   -1.7149   -7.2806   -0.5073 O   0  0  0  0  0  0  0  0  0  0  0  0
    0.0840   -6.4439   -1.9242 C   0  0  2  0  0  0  0  0  0  0  0  0
    0.3645   -7.7940   -2.3179 O   0  0  0  0  0  0  0  0  0  0  0  0
    3.1928   -4.6687   -4.5780 H   0  0  0  0  0  0  0  0  0  0  0  0
    0.9576   -4.5897   -3.9305 H   0  0  0  0  0  0  0  0  0  0  0  0
    1.6862   -6.2114   -4.0637 H   0  0  0  0  0  0  0  0  0  0  0  0
    2.2025   -6.0837   -1.5554 H   0  0  0  0  0  0  0  0  0  0  0  0
    2.9884   -3.2397   -1.7247 H   0  0  0  0  0  0  0  0  0  0  0  0
    3.1223   -0.9036   -0.0709 H   0  0  0  0  0  0  0  0  0  0  0  0
    2.1119   -1.0561    1.3649 H   0  0  0  0  0  0  0  0  0  0  0  0
    1.7295    1.0986    0.0895 H   0  0  0  0  0  0  0  0  0  0  0  0
    1.2573    0.1799   -1.3282 H   0  0  0  0  0  0  0  0  0  0  0  0
    0.3713    0.5515    2.3468 H   0  0  0  0  0  0  0  0  0  0  0  0
   -1.9473    0.4489    3.1784 H   0  0  0  0  0  0  0  0  0  0  0  0
   -3.8202    0.0220    1.6140 H   0  0  0  0  0  0  0  0  0  0  0  0
   -3.3727   -0.2879   -0.8036 H   0  0  0  0  0  0  0  0  0  0  0  0
   -1.0618   -0.1996   -1.6628 H   0  0  0  0  0  0  0  0  0  0  0  0
   -0.2030   -2.5266    0.9528 H   0  0  0  0  0  0  0  0  0  0  0  0
   -1.7734   -4.6681   -0.6571 H   0  0  0  0  0  0  0  0  0  0  0  0
   -1.9729   -5.7501    1.4016 H   0  0  0  0  0  0  0  0  0  0  0  0
    0.1587   -6.9179    0.1995 H   0  0  0  0  0  0  0  0  0  0  0  0
   -1.5298   -8.0775   -1.0466 H   0  0  0  0  0  0  0  0  0  0  0  0
   -0.6717   -6.0756   -2.6295 H   0  0  0  0  0  0  0  0  0  0  0  0
    0.9899   -8.2082   -1.6930 H   0  0  0  0  0  0  0  0  0  0  0  0
 23  1  1  0
  1  2  1  0
  2 24  1  0
  2 25  1  0
  2  3  1  0
  3 26  1  1
  3  4  1  0
  4  5  1  0
  5 27  1  0
  5  6  2  0
  6  7  1  0
  7 28  1  0
  7 29  1  0
  7  8  1  0
  8 30  1  0
  8 31  1  0
  8  9  1  0
  9 10  2  0
 10 32  1  0
 10 11  1  0
 11 33  1  0
 11 12  2  0
 12 34  1  0
 12 13  1  0
 13 35  1  0
  9 14  1  0
 13 14  2  0
 14 36  1  0
  6 15  1  0
 15 37  1  0
  4 16  2  0
 15 16  1  0
 16 17  1  0
 17 38  1  6
 17 18  1  0
 18 39  1  0
 17 19  1  0
 19 40  1  1
 19 20  1  0
 20 41  1  0
  3 21  1  0
 19 21  1  0
 21 42  1  6
 21 22  1  0
 22 43  1  0
M  CHG  1   4   1
M  END
>  <conformer_energy>  (1) 
163.91

>  <ligand_smiles>  (1) 
OC[C@@H]1[C@@H](O)[C@H](O)[C@@H](O)c2[nH]c(CCc3ccccc3)c[n+]21

>  <ligand_conf_name>  (1) 
MOL_0_isomer_0_conf_0

>  <ligand_molecule_name>  (1) 
MOL_0_isomer_0

$$$$
