MOL_0_isomer_0_conf_0
     RDKit          3D

 29 29  0  0  0  0  0  0  0  0999 V2000
    0.8172    3.0476    0.1458 O   0  0  0  0  0  0  0  0  0  0  0  0
    2.0900    2.4092    0.2569 C   0  0  2  0  0  0  0  0  0  0  0  0
    2.7048    2.3085   -1.1449 C   0  0  1  0  0  0  0  0  0  0  0  0
    4.0981    1.9269   -1.0596 O   0  0  0  0  0  0  0  0  0  0  0  0
    1.9484    1.2591   -1.9868 C   0  0  1  0  0  0  0  0  0  0  0  0
    2.6709    1.1386   -3.2284 O   0  0  0  0  0  0  0  0  0  0  0  0
    1.9762    0.3097   -4.1518 C   0  0  0  0  0  0  0  0  0  0  0  0
    1.9293   -0.0129   -1.3308 O   0  0  0  0  0  0  0  0  0  0  0  0
    1.2872    0.0018   -0.0226 C   0  0  2  0  0  0  0  0  0  0  0  0
   -0.2269    0.1413   -0.1941 C   0  0  0  0  0  0  0  0  0  0  0  0
   -1.1210    0.3316    1.3176 S   0  0  0  0  0  6  0  0  0  0  0  0
   -2.5095    0.1652    0.9001 O   0  0  0  0  0  0  0  0  0  0  0  0
   -0.5937   -0.7302    2.1655 O   0  0  0  0  0  0  0  0  0  0  0  0
   -0.7673    1.6925    1.7278 O   0  0  0  0  0  1  0  0  0  0  0  0
    2.0120    1.0100    0.8977 C   0  0  1  0  0  0  0  0  0  0  0  0
    3.3524    0.5281    1.1497 O   0  0  0  0  0  0  0  0  0  0  0  0
    0.2604    2.7710    0.9220 H   0  0  0  0  0  0  0  0  0  0  0  0
    2.7310    3.0452    0.8788 H   0  0  0  0  0  0  0  0  0  0  0  0
    2.6737    3.2766   -1.6581 H   0  0  0  0  0  0  0  0  0  0  0  0
    4.2990    1.5687   -1.9500 H   0  0  0  0  0  0  0  0  0  0  0  0
    0.9334    1.6046   -2.2081 H   0  0  0  0  0  0  0  0  0  0  0  0
    2.5444    0.2899   -5.0858 H   0  0  0  0  0  0  0  0  0  0  0  0
    0.9809    0.7136   -4.3609 H   0  0  0  0  0  0  0  0  0  0  0  0
    1.8979   -0.7147   -3.7760 H   0  0  0  0  0  0  0  0  0  0  0  0
    1.4807   -0.9989    0.3846 H   0  0  0  0  0  0  0  0  0  0  0  0
   -0.5139    0.9785   -0.8353 H   0  0  0  0  0  0  0  0  0  0  0  0
   -0.6086   -0.7599   -0.6893 H   0  0  0  0  0  0  0  0  0  0  0  0
    1.5426    1.0599    1.8810 H   0  0  0  0  0  0  0  0  0  0  0  0
    3.8698    0.7007    0.3358 H   0  0  0  0  0  0  0  0  0  0  0  0
 17  1  1  0
  1  2  1  0
  2 18  1  1
  2  3  1  0
  3 19  1  6
  3  4  1  0
  4 20  1  0
  3  5  1  0
  5 21  1  6
  5  6  1  0
  6  7  1  0
  7 22  1  0
  7 23  1  0
  7 24  1  0
  5  8  1  0
  8  9  1  0
  9 25  1  1
  9 10  1  0
 10 26  1  0
 10 27  1  0
 10 11  1  0
 11 12  2  0
 11 13  2  0
 11 14  1  0
  2 15  1  0
  9 15  1  0
 15 28  1  1
 15 16  1  0
 16 29  1  0
M  CHG  1  14  -1
M  END
>  <conformer_energy>  (1) 
61.82

>  <ligand_smiles>  (1) 
CO[C@H]1O[C@H](CS(=O)(=O)[O-])[C@@H](O)[C@H](O)[C@H]1O

>  <ligand_conf_name>  (1) 
MOL_0_isomer_0_conf_0

>  <ligand_molecule_name>  (1) 
MOL_0_isomer_0

$$$$
