MOL_0_isomer_0_conf_0
     RDKit          3D

 30 32  0  0  0  0  0  0  0  0999 V2000
    3.5430   -1.5460   -5.5691 N   0  0  0  0  0  0  0  0  0  0  0  0
    2.9754   -0.9807   -4.5685 C   0  0  0  0  0  0  0  0  0  0  0  0
    2.6533   -1.6870   -3.4391 N   0  0  0  0  0  0  0  0  0  0  0  0
    2.0987   -0.8380   -2.6106 C   0  0  0  0  0  0  0  0  0  0  0  0
    1.6601   -1.2166   -1.3706 N   0  0  0  0  0  0  0  0  0  0  0  0
    1.1483   -0.4179   -0.4055 N   0  0  0  0  0  0  0  0  0  0  0  0
   -0.2186   -0.2959   -0.1068 C   0  0  0  0  0  0  0  0  0  0  0  0
   -0.6229    0.5074    0.9677 C   0  0  0  0  0  0  0  0  0  0  0  0
   -1.9768    0.6626    1.2783 C   0  0  0  0  0  0  0  0  0  0  0  0
   -2.9455    0.0188    0.5128 C   0  0  0  0  0  0  0  0  0  0  0  0
   -2.5606   -0.7774   -0.5627 C   0  0  0  0  0  0  0  0  0  0  0  0
   -1.2059   -0.9312   -0.8702 C   0  0  0  0  0  0  0  0  0  0  0  0
    2.0217    0.5158   -3.1850 C   0  0  0  0  0  0  0  0  0  0  0  0
    1.5239    1.7236   -2.7373 C   0  0  0  0  0  0  0  0  0  0  0  0
    1.6280    2.8266   -3.5957 C   0  0  0  0  0  0  0  0  0  0  0  0
    2.2180    2.7025   -4.8700 C   0  0  0  0  0  0  0  0  0  0  0  0
    2.7105    1.4720   -5.3086 C   0  0  0  0  0  0  0  0  0  0  0  0
    2.5922    0.4062   -4.4396 C   0  0  0  0  0  0  0  0  0  0  0  0
    3.6553   -2.5294   -5.2937 H   0  0  0  0  0  0  0  0  0  0  0  0
    1.7580   -2.2095   -1.1622 H   0  0  0  0  0  0  0  0  0  0  0  0
    1.7993    0.0398    0.2295 H   0  0  0  0  0  0  0  0  0  0  0  0
    0.1149    1.0212    1.5782 H   0  0  0  0  0  0  0  0  0  0  0  0
   -2.2738    1.2864    2.1174 H   0  0  0  0  0  0  0  0  0  0  0  0
   -3.9990    0.1384    0.7522 H   0  0  0  0  0  0  0  0  0  0  0  0
   -3.3124   -1.2791   -1.1664 H   0  0  0  0  0  0  0  0  0  0  0  0
   -0.9292   -1.5510   -1.7191 H   0  0  0  0  0  0  0  0  0  0  0  0
    1.0578    1.8274   -1.7657 H   0  0  0  0  0  0  0  0  0  0  0  0
    1.2432    3.7937   -3.2771 H   0  0  0  0  0  0  0  0  0  0  0  0
    2.2851    3.5734   -5.5190 H   0  0  0  0  0  0  0  0  0  0  0  0
    3.1636    1.3482   -6.2863 H   0  0  0  0  0  0  0  0  0  0  0  0
 19  1  1  0
  1  2  2  0
  2  3  1  0
  3  4  2  0
  4  5  1  0
  5 20  1  0
  5  6  1  0
  6 21  1  0
  6  7  1  0
  7  8  2  0
  8 22  1  0
  8  9  1  0
  9 23  1  0
  9 10  2  0
 10 24  1  0
 10 11  1  0
 11 25  1  0
  7 12  1  0
 11 12  2  0
 12 26  1  0
  4 13  1  0
 13 14  2  0
 14 27  1  0
 14 15  1  0
 15 28  1  0
 15 16  2  0
 16 29  1  0
 16 17  1  0
 17 30  1  0
 13 18  1  0
  2 18  1  0
 17 18  2  0
M  END
>  <conformer_energy>  (1) 
40.10

>  <ligand_smiles>  (1) 
[H]/N=C1\N=C(NNc2ccccc2)c2ccccc21

>  <ligand_conf_name>  (1) 
MOL_0_isomer_0_conf_0

>  <ligand_molecule_name>  (1) 
MOL_0_isomer_0

$$$$
