MOL_0_isomer_0_conf_0
     RDKit          3D

 41 42  0  0  0  0  0  0  0  0999 V2000
    3.4944   -0.7300    0.7071 O   0  0  0  0  0  0  0  0  0  0  0  0
    2.7001    0.4626    0.8789 C   0  0  1  0  0  0  0  0  0  0  0  0
    3.3757    1.5778    0.1020 C   0  0  1  0  0  0  0  0  0  0  0  0
    4.8055    1.4785    0.1988 O   0  0  0  0  0  0  0  0  0  0  0  0
    2.8422    1.3465   -1.3201 C   0  0  2  0  0  0  0  0  0  0  0  0
    2.6859    2.5967   -2.0884 N   0  0  0  0  0  0  0  0  0  0  0  0
    1.4865    3.2771   -2.0534 C   0  0  0  0  0  0  0  0  0  0  0  0
    1.3256    4.4388   -2.6780 C   0  0  0  0  0  0  0  0  0  0  0  0
    2.5078    4.9414   -3.3911 C   0  0  0  0  0  0  0  0  0  0  0  0
    2.4384    6.1423   -4.0333 N   0  0  0  0  0  0  0  0  0  0  0  0
    3.6369    4.3080   -3.4529 N   0  0  0  0  0  0  0  0  0  0  0  0
    3.7734    3.0877   -2.8101 C   0  0  0  0  0  0  0  0  0  0  0  0
    4.8353    2.4776   -2.9155 O   0  0  0  0  0  0  0  0  0  0  0  0
    1.5699    0.6932   -1.2121 O   0  0  0  0  0  0  0  0  0  0  0  0
    1.3428    0.3371    0.1939 C   0  0  2  0  0  0  0  0  0  0  0  0
    0.3344    1.3079    0.8186 C   0  0  0  0  0  0  0  0  0  0  0  0
   -0.9349    1.1507    0.2051 O   0  0  0  0  0  0  0  0  0  0  0  0
   -2.2317    1.4502    1.1331 P   0  0  2  0  0  5  0  0  0  0  0  0
   -3.4839    1.2574    0.2912 O   0  0  0  0  0  0  0  0  0  0  0  0
   -2.0337    2.8607    1.6866 O   0  0  0  0  0  1  0  0  0  0  0  0
   -2.1201    0.3870    2.3210 O   0  0  0  0  0  0  0  0  0  0  0  0
   -1.5950   -1.1368    2.4842 P   0  0  1  0  0  5  0  0  0  0  0  0
   -2.5243   -1.7528    3.5292 O   0  0  0  0  0  0  0  0  0  0  0  0
   -1.5427   -1.7838    1.1129 O   0  0  0  0  0  1  0  0  0  0  0  0
   -0.1412   -0.8412    3.0965 O   0  0  0  0  0  0  0  0  0  0  0  0
    1.2343   -1.5687    3.5147 P   0  0  0  0  0  5  0  0  0  0  0  0
    2.0358   -0.4540    4.2000 O   0  0  0  0  0  0  0  0  0  0  0  0
    0.9321   -2.7228    4.4605 O   0  0  0  0  0  1  0  0  0  0  0  0
    1.9520   -1.9904    2.2290 O   0  0  0  0  0  1  0  0  0  0  0  0
    2.9712   -1.3756    1.3000 H   0  0  0  0  0  0  0  0  0  0  0  0
    2.6604    0.6824    1.9482 H   0  0  0  0  0  0  0  0  0  0  0  0
    3.0723    2.5593    0.4833 H   0  0  0  0  0  0  0  0  0  0  0  0
    4.9211    0.5310    0.4506 H   0  0  0  0  0  0  0  0  0  0  0  0
    3.5121    0.6797   -1.8760 H   0  0  0  0  0  0  0  0  0  0  0  0
    0.6575    2.8306   -1.5089 H   0  0  0  0  0  0  0  0  0  0  0  0
    0.3925    4.9803   -2.6633 H   0  0  0  0  0  0  0  0  0  0  0  0
    1.6116    6.7175   -4.0049 H   0  0  0  0  0  0  0  0  0  0  0  0
    3.2778    6.4685   -4.4886 H   0  0  0  0  0  0  0  0  0  0  0  0
    0.9491   -0.6828    0.1889 H   0  0  0  0  0  0  0  0  0  0  0  0
    0.6383    2.3469    0.6621 H   0  0  0  0  0  0  0  0  0  0  0  0
    0.2715    1.1626    1.8980 H   0  0  0  0  0  0  0  0  0  0  0  0
 30  1  1  0
  1  2  1  0
  2 31  1  1
  2  3  1  0
  3 32  1  1
  3  4  1  0
  4 33  1  0
  3  5  1  0
  5 34  1  6
  5  6  1  0
  6  7  1  0
  7 35  1  0
  7  8  2  0
  8 36  1  0
  8  9  1  0
  9 10  1  0
 10 37  1  0
 10 38  1  0
  9 11  2  0
  6 12  1  0
 11 12  1  0
 12 13  2  0
  5 14  1  0
  2 15  1  0
 14 15  1  0
 15 39  1  6
 15 16  1  0
 16 40  1  0
 16 41  1  0
 16 17  1  0
 17 18  1  0
 18 19  2  0
 18 20  1  1
 18 21  1  0
 21 22  1  0
 22 23  2  0
 22 24  1  6
 22 25  1  0
 25 26  1  0
 26 27  2  0
 26 28  1  0
 26 29  1  0
M  CHG  4  20  -1  24  -1  28  -1  29  -1
M  END
>  <conformer_energy>  (1) 
-27.94

>  <ligand_smiles>  (1) 
Nc1ccn([C@@H]2O[C@H](CO[P@](=O)([O-])O[P@@](=O)([O-])OP(=O)([O-])[O-])[C@@H](O)[C@H]2O)c(=O)n1

>  <ligand_conf_name>  (1) 
MOL_0_isomer_0_conf_0

>  <ligand_molecule_name>  (1) 
MOL_0_isomer_0

$$$$
