MOL_0_isomer_0_chiral_N_isomer_0_conf_0
     RDKit          3D

 45 47  0  0  0  0  0  0  0  0999 V2000
    3.7898   -8.6508    3.7246 C   0  0  0  0  0  0  0  0  0  0  0  0
    4.1787   -8.8309    5.0583 C   0  0  0  0  0  0  0  0  0  0  0  0
    3.9129   -7.8524    6.0210 C   0  0  0  0  0  0  0  0  0  0  0  0
    4.2605   -7.9673    7.3851 N   0  0  0  0  0  0  0  0  0  0  0  0
    4.8879   -9.0348    8.0017 C   0  0  0  0  0  0  0  0  0  0  0  0
    5.2203  -10.0937    7.4835 O   0  0  0  0  0  0  0  0  0  0  0  0
    5.1436   -8.8648    9.4587 C   0  0  0  0  0  0  0  0  0  0  0  0
    5.4797   -7.6245   10.0128 C   0  0  0  0  0  0  0  0  0  0  0  0
    5.7101   -7.5301   11.3828 C   0  0  0  0  0  0  0  0  0  0  0  0
    6.0252   -6.3404   11.9104 F   0  0  0  0  0  0  0  0  0  0  0  0
    5.6221   -8.6416   12.2094 C   0  0  0  0  0  0  0  0  0  0  0  0
    5.3057   -9.8695   11.6464 C   0  0  0  0  0  0  0  0  0  0  0  0
    5.2237  -10.9512   12.4313 F   0  0  0  0  0  0  0  0  0  0  0  0
    5.0706   -9.9959   10.2815 C   0  0  0  0  0  0  0  0  0  0  0  0
    3.2618   -6.6779    5.6282 C   0  0  0  0  0  0  0  0  0  0  0  0
    2.8819   -6.5015    4.2925 C   0  0  0  0  0  0  0  0  0  0  0  0
    2.0769   -4.9992    3.7975 S   0  0  0  0  0  6  0  0  0  0  0  0
    0.7875   -5.3657    3.2574 O   0  0  0  0  0  0  0  0  0  0  0  0
    2.2235   -4.0491    4.8802 O   0  0  0  0  0  0  0  0  0  0  0  0
    3.1127   -4.4692    2.5470 N   0  0  0  0  0  0  0  0  0  0  0  0
    2.6002   -3.3561    1.8037 C   0  0  0  0  0  0  0  0  0  0  0  0
    1.6528   -3.5656    0.8039 C   0  0  0  0  0  0  0  0  0  0  0  0
    1.1114   -2.4797    0.1055 C   0  0  0  0  0  0  0  0  0  0  0  0
    1.5112   -1.1781    0.4142 C   0  0  0  0  0  0  0  0  0  0  0  0
    1.0679   -0.0291   -0.1745 O   0  0  0  0  0  0  0  0  0  0  0  0
    0.0960   -0.1419   -1.2007 C   0  0  0  0  0  0  0  0  0  0  0  0
   -1.0359   -0.7156   -0.7417 F   0  0  0  0  0  0  0  0  0  0  0  0
    0.5735   -0.8521   -2.2454 F   0  0  0  0  0  0  0  0  0  0  0  0
   -0.2114    1.0979   -1.6423 F   0  0  0  0  0  0  0  0  0  0  0  0
    2.4542   -0.9784    1.4287 C   0  0  0  0  0  0  0  0  0  0  0  0
    2.9934   -2.0606    2.1283 C   0  0  0  0  0  0  0  0  0  0  0  0
    3.1361   -7.4852    3.3362 C   0  0  0  0  0  0  0  0  0  0  0  0
    3.9974   -9.4302    2.9945 H   0  0  0  0  0  0  0  0  0  0  0  0
    4.6839   -9.7581    5.3130 H   0  0  0  0  0  0  0  0  0  0  0  0
    3.9748   -7.1933    7.9719 H   0  0  0  0  0  0  0  0  0  0  0  0
    5.5950   -6.7328    9.4054 H   0  0  0  0  0  0  0  0  0  0  0  0
    5.8038   -8.5549   13.2745 H   0  0  0  0  0  0  0  0  0  0  0  0
    4.8316  -10.9733    9.8688 H   0  0  0  0  0  0  0  0  0  0  0  0
    3.0412   -5.8998    6.3554 H   0  0  0  0  0  0  0  0  0  0  0  0
    4.0195   -4.2531    2.9642 H   0  0  0  0  0  0  0  0  0  0  0  0
    1.3232   -4.5737    0.5655 H   0  0  0  0  0  0  0  0  0  0  0  0
    0.3756   -2.6963   -0.6639 H   0  0  0  0  0  0  0  0  0  0  0  0
    2.7661    0.0323    1.6863 H   0  0  0  0  0  0  0  0  0  0  0  0
    3.7050   -1.8738    2.9272 H   0  0  0  0  0  0  0  0  0  0  0  0
    2.8277   -7.3519    2.3015 H   0  0  0  0  0  0  0  0  0  0  0  0
 33  1  1  0
  1  2  2  0
  2 34  1  0
  2  3  1  0
  3  4  1  0
  4 35  1  0
  4  5  1  0
  5  6  2  0
  5  7  1  0
  7  8  2  0
  8 36  1  0
  8  9  1  0
  9 10  1  0
  9 11  2  0
 11 37  1  0
 11 12  1  0
 12 13  1  0
  7 14  1  0
 12 14  2  0
 14 38  1  0
  3 15  2  0
 15 39  1  0
 15 16  1  0
 16 17  1  0
 17 18  2  0
 17 19  2  0
 17 20  1  0
 20 40  1  0
 20 21  1  0
 21 22  2  0
 22 41  1  0
 22 23  1  0
 23 42  1  0
 23 24  2  0
 24 25  1  0
 25 26  1  0
 26 27  1  0
 26 28  1  0
 26 29  1  0
 24 30  1  0
 30 43  1  0
 21 31  1  0
 30 31  2  0
 31 44  1  0
  1 32  1  0
 16 32  2  0
 32 45  1  0
M  END
>  <conformer_energy>  (1) 
-18.09

>  <ligand_smiles>  (1) 
O=C(Nc1cccc(S(=O)(=O)Nc2ccc(OC(F)(F)F)cc2)c1)c1cc(F)cc(F)c1

>  <ligand_conf_name>  (1) 
MOL_0_isomer_0_chiral_N_isomer_0_conf_0

>  <ligand_molecule_name>  (1) 
MOL_0_isomer_0_chiral_N_isomer_0

$$$$
MOL_0_isomer_0_chiral_N_isomer_1_conf_0
     RDKit          3D

 45 47  0  0  0  0  0  0  0  0999 V2000
    6.7869   -7.0559    5.1829 C   0  0  0  0  0  0  0  0  0  0  0  0
    6.0582   -8.2290    4.9482 C   0  0  0  0  0  0  0  0  0  0  0  0
    5.0685   -8.2727    3.9616 C   0  0  0  0  0  0  0  0  0  0  0  0
    4.3011   -9.4190    3.6601 N   0  0  0  0  0  0  0  0  0  0  0  0
    4.4056  -10.6714    4.2380 C   0  0  0  0  0  0  0  0  0  0  0  0
    5.2243  -11.0308    5.0748 O   0  0  0  0  0  0  0  0  0  0  0  0
    3.4265  -11.6799    3.7466 C   0  0  0  0  0  0  0  0  0  0  0  0
    2.1140  -11.3315    3.4064 C   0  0  0  0  0  0  0  0  0  0  0  0
    1.2404  -12.3195    2.9595 C   0  0  0  0  0  0  0  0  0  0  0  0
   -0.0139  -11.9823    2.6323 F   0  0  0  0  0  0  0  0  0  0  0  0
    1.6410  -13.6442    2.8524 C   0  0  0  0  0  0  0  0  0  0  0  0
    2.9390  -13.9812    3.2111 C   0  0  0  0  0  0  0  0  0  0  0  0
    3.3349  -15.2577    3.1235 F   0  0  0  0  0  0  0  0  0  0  0  0
    3.8347  -13.0168    3.6611 C   0  0  0  0  0  0  0  0  0  0  0  0
    4.8064   -7.1174    3.2179 C   0  0  0  0  0  0  0  0  0  0  0  0
    5.5296   -5.9438    3.4664 C   0  0  0  0  0  0  0  0  0  0  0  0
    5.1814   -4.5005    2.4932 S   0  0  0  0  0  6  0  0  0  0  0  0
    6.2299   -3.5319    2.7319 O   0  0  0  0  0  0  0  0  0  0  0  0
    4.8338   -4.9518    1.1636 O   0  0  0  0  0  0  0  0  0  0  0  0
    3.7883   -3.9237    3.2960 N   0  0  0  0  0  0  0  0  0  0  0  0
    3.0477   -2.9571    2.5402 C   0  0  0  0  0  0  0  0  0  0  0  0
    3.3557   -1.6021    2.6330 C   0  0  0  0  0  0  0  0  0  0  0  0
    2.6509   -0.6798    1.8556 C   0  0  0  0  0  0  0  0  0  0  0  0
    1.6475   -1.1018    0.9753 C   0  0  0  0  0  0  0  0  0  0  0  0
    1.0425   -0.0912    0.2851 O   0  0  0  0  0  0  0  0  0  0  0  0
   -0.0231   -0.4306   -0.5863 C   0  0  0  0  0  0  0  0  0  0  0  0
   -1.0288   -1.0321    0.0861 F   0  0  0  0  0  0  0  0  0  0  0  0
    0.3983   -1.2379   -1.5835 F   0  0  0  0  0  0  0  0  0  0  0  0
   -0.5086    0.7029   -1.1404 F   0  0  0  0  0  0  0  0  0  0  0  0
    1.3641   -2.4650    0.8717 C   0  0  0  0  0  0  0  0  0  0  0  0
    2.0697   -3.3909    1.6482 C   0  0  0  0  0  0  0  0  0  0  0  0
    6.5291   -5.9080    4.4387 C   0  0  0  0  0  0  0  0  0  0  0  0
    7.5612   -7.0492    5.9476 H   0  0  0  0  0  0  0  0  0  0  0  0
    6.2968   -9.0981    5.5544 H   0  0  0  0  0  0  0  0  0  0  0  0
    3.6350   -9.3091    2.9063 H   0  0  0  0  0  0  0  0  0  0  0  0
    1.7419  -10.3168    3.5063 H   0  0  0  0  0  0  0  0  0  0  0  0
    0.9505  -14.4045    2.5053 H   0  0  0  0  0  0  0  0  0  0  0  0
    4.8432  -13.3124    3.9408 H   0  0  0  0  0  0  0  0  0  0  0  0
    4.0449   -7.1170    2.4407 H   0  0  0  0  0  0  0  0  0  0  0  0
    4.1012   -3.5228    4.1832 H   0  0  0  0  0  0  0  0  0  0  0  0
    4.1435   -1.2491    3.2932 H   0  0  0  0  0  0  0  0  0  0  0  0
    2.8929    0.3786    1.9334 H   0  0  0  0  0  0  0  0  0  0  0  0
    0.6094   -2.8524    0.1931 H   0  0  0  0  0  0  0  0  0  0  0  0
    1.8520   -4.4513    1.5488 H   0  0  0  0  0  0  0  0  0  0  0  0
    7.1094   -5.0062    4.6199 H   0  0  0  0  0  0  0  0  0  0  0  0
 33  1  1  0
  1  2  2  0
  2 34  1  0
  2  3  1  0
  3  4  1  0
  4 35  1  0
  4  5  1  0
  5  6  2  0
  5  7  1  0
  7  8  2  0
  8 36  1  0
  8  9  1  0
  9 10  1  0
  9 11  2  0
 11 37  1  0
 11 12  1  0
 12 13  1  0
  7 14  1  0
 12 14  2  0
 14 38  1  0
  3 15  2  0
 15 39  1  0
 15 16  1  0
 16 17  1  0
 17 18  2  0
 17 19  2  0
 17 20  1  0
 20 40  1  0
 20 21  1  0
 21 22  2  0
 22 41  1  0
 22 23  1  0
 23 42  1  0
 23 24  2  0
 24 25  1  0
 25 26  1  0
 26 27  1  0
 26 28  1  0
 26 29  1  0
 24 30  1  0
 30 43  1  0
 21 31  1  0
 30 31  2  0
 31 44  1  0
  1 32  1  0
 16 32  2  0
 32 45  1  0
M  END
>  <conformer_energy>  (2) 
-18.45

>  <ligand_smiles>  (2) 
O=C(Nc1cccc(S(=O)(=O)Nc2ccc(OC(F)(F)F)cc2)c1)c1cc(F)cc(F)c1

>  <ligand_conf_name>  (2) 
MOL_0_isomer_0_chiral_N_isomer_1_conf_0

>  <ligand_molecule_name>  (2) 
MOL_0_isomer_0_chiral_N_isomer_1

$$$$
