MOL_0_isomer_0_conf_0
     RDKit          3D

 53 57  0  0  0  0  0  0  0  0999 V2000
    5.8365    1.6397    2.6798 N   0  0  0  0  0  0  0  0  0  0  0  0
    4.4452    1.8388    3.3200 S   0  0  1  0  0  6  0  0  0  0  0  0
    4.2581    2.1133    4.7309 O   0  0  0  0  0  0  0  0  0  0  0  0
    3.5970    3.1093    2.4151 C   0  0  0  0  0  0  0  0  0  0  0  0
    3.4988    0.3078    2.9166 C   0  0  0  0  0  0  0  0  0  0  0  0
    3.1752    0.0858    1.4681 C   0  0  0  0  0  0  0  0  0  0  0  0
    1.9363    0.4116    1.0361 N   0  0  0  0  0  0  0  0  0  0  0  0
    1.6180    0.2402   -0.2554 C   0  0  0  0  0  0  0  0  0  0  0  0
    0.3535    0.5927   -0.6830 N   0  0  0  0  0  0  0  0  0  0  0  0
   -0.7042    0.7602    0.3189 C   0  0  0  0  0  0  0  0  0  0  0  0
   -1.5262   -0.5350    0.4080 C   0  0  0  0  0  0  0  0  0  0  0  0
   -2.0469   -0.9161   -0.8798 O   0  0  0  0  0  0  0  0  0  0  0  0
   -0.9764   -1.1281   -1.8211 C   0  0  0  0  0  0  0  0  0  0  0  0
   -0.1013    0.1334   -2.0081 C   0  0  1  0  0  0  0  0  0  0  0  0
   -0.8749    1.2505   -2.7150 C   0  0  0  0  0  0  0  0  0  0  0  0
    2.4912   -0.2506   -1.1398 N   0  0  0  0  0  0  0  0  0  0  0  0
    3.7288   -0.5750   -0.7215 C   0  0  0  0  0  0  0  0  0  0  0  0
    4.6481   -1.0729   -1.7462 C   0  0  0  0  0  0  0  0  0  0  0  0
    5.9496   -0.5664   -1.9092 C   0  0  0  0  0  0  0  0  0  0  0  0
    6.7725   -1.0882   -2.8983 C   0  0  0  0  0  0  0  0  0  0  0  0
    6.4421   -2.0790   -3.7527 N   0  0  0  0  0  0  0  0  0  0  0  0
    5.1905   -2.5341   -3.5688 C   0  0  0  0  0  0  0  0  0  0  0  0
    4.2576   -2.1066   -2.6284 C   0  0  0  0  0  0  0  0  0  0  0  0
    3.0927   -2.9061   -2.8332 C   0  0  0  0  0  0  0  0  0  0  0  0
    3.3460   -3.7718   -3.8763 C   0  0  0  0  0  0  0  0  0  0  0  0
    4.6229   -3.5321   -4.3129 N   0  0  0  0  0  0  0  0  0  0  0  0
    4.1114   -0.4225    0.5921 C   0  0  0  0  0  0  0  0  0  0  0  0
    3.8456   -0.8432    3.8375 C   0  0  0  0  0  0  0  0  0  0  0  0
    2.5344   -0.1272    3.9990 C   0  0  0  0  0  0  0  0  0  0  0  0
    6.4038    1.0178    3.2598 H   0  0  0  0  0  0  0  0  0  0  0  0
    3.7171    2.9407    1.3435 H   0  0  0  0  0  0  0  0  0  0  0  0
    4.0304    4.0728    2.6920 H   0  0  0  0  0  0  0  0  0  0  0  0
    2.5402    3.0901    2.6904 H   0  0  0  0  0  0  0  0  0  0  0  0
   -1.3611    1.5768   -0.0024 H   0  0  0  0  0  0  0  0  0  0  0  0
   -0.3348    1.0485    1.3092 H   0  0  0  0  0  0  0  0  0  0  0  0
   -0.9261   -1.3613    0.8072 H   0  0  0  0  0  0  0  0  0  0  0  0
   -2.3796   -0.3872    1.0768 H   0  0  0  0  0  0  0  0  0  0  0  0
   -0.3697   -1.9713   -1.4689 H   0  0  0  0  0  0  0  0  0  0  0  0
   -1.4287   -1.4238   -2.7735 H   0  0  0  0  0  0  0  0  0  0  0  0
    0.7328   -0.1219   -2.6721 H   0  0  0  0  0  0  0  0  0  0  0  0
   -0.2680    2.1602   -2.7787 H   0  0  0  0  0  0  0  0  0  0  0  0
   -1.1356    0.9462   -3.7346 H   0  0  0  0  0  0  0  0  0  0  0  0
   -1.8073    1.5059   -2.2023 H   0  0  0  0  0  0  0  0  0  0  0  0
    6.3172    0.2416   -1.2831 H   0  0  0  0  0  0  0  0  0  0  0  0
    7.7772   -0.6936   -3.0339 H   0  0  0  0  0  0  0  0  0  0  0  0
    2.1678   -2.8459   -2.2747 H   0  0  0  0  0  0  0  0  0  0  0  0
    2.7332   -4.5318   -4.3424 H   0  0  0  0  0  0  0  0  0  0  0  0
    5.1005   -4.0047   -5.0658 H   0  0  0  0  0  0  0  0  0  0  0  0
    5.1078   -0.6834    0.9276 H   0  0  0  0  0  0  0  0  0  0  0  0
    4.5914   -0.6983    4.6117 H   0  0  0  0  0  0  0  0  0  0  0  0
    3.8180   -1.8533    3.4441 H   0  0  0  0  0  0  0  0  0  0  0  0
    1.6317   -0.6501    3.7008 H   0  0  0  0  0  0  0  0  0  0  0  0
    2.3954    0.4909    4.8788 H   0  0  0  0  0  0  0  0  0  0  0  0
 30  1  1  0
  1  2  2  0
  2  3  2  0
  2  4  1  6
  4 31  1  0
  4 32  1  0
  4 33  1  0
  2  5  1  0
  5  6  1  0
  6  7  2  0
  7  8  1  0
  8  9  1  0
  9 10  1  0
 10 34  1  0
 10 35  1  0
 10 11  1  0
 11 36  1  0
 11 37  1  0
 11 12  1  0
 12 13  1  0
 13 38  1  0
 13 39  1  0
  9 14  1  0
 13 14  1  0
 14 40  1  6
 14 15  1  0
 15 41  1  0
 15 42  1  0
 15 43  1  0
  8 16  2  0
 16 17  1  0
 17 18  1  0
 18 19  2  0
 19 44  1  0
 19 20  1  0
 20 45  1  0
 20 21  2  0
 21 22  1  0
 18 23  1  0
 22 23  2  0
 23 24  1  0
 24 46  1  0
 24 25  2  0
 25 47  1  0
 22 26  1  0
 25 26  1  0
 26 48  1  0
  6 27  1  0
 17 27  2  0
 27 49  1  0
  5 28  1  0
 28 50  1  0
 28 51  1  0
  5 29  1  0
 28 29  1  0
 29 52  1  0
 29 53  1  0
M  END
>  <conformer_energy>  (1) 
10.53

>  <ligand_smiles>  (1) 
[H]N=[S@](C)(=O)C1(c2cc(-c3ccnc4[nH]ccc34)nc(N3CCOC[C@H]3C)n2)CC1

>  <ligand_conf_name>  (1) 
MOL_0_isomer_0_conf_0

>  <ligand_molecule_name>  (1) 
MOL_0_isomer_0

$$$$
