MOL_0_isomer_0_conf_0
     RDKit          3D

 47 48  0  0  0  0  0  0  0  0999 V2000
    3.9555   -1.8972    2.3413 O   0  0  0  0  0  0  0  0  0  0  0  0
    2.9669   -1.8930    3.3558 C   0  0  0  0  0  0  0  0  0  0  0  0
    2.2165   -3.1957    3.2888 C   0  0  0  0  0  0  0  0  0  0  0  0
    2.3688   -4.1454    4.2350 C   0  0  0  0  0  0  0  0  0  0  0  0
    1.6777   -5.4773    4.2040 C   0  0  2  0  0  0  0  0  0  0  0  0
    2.6763   -6.5713    4.3869 N   0  0  0  0  0  4  0  0  0  0  0  0
    0.9761   -5.7660    2.8522 C   0  0  2  0  0  0  0  0  0  0  0  0
    1.9677   -6.2901    1.9383 O   0  0  0  0  0  0  0  0  0  0  0  0
    0.2572   -4.5145    2.3262 C   0  0  1  0  0  0  0  0  0  0  0  0
   -0.7677   -4.1623    3.2565 O   0  0  0  0  0  0  0  0  0  0  0  0
    1.2603   -3.3532    2.1190 C   0  0  2  0  0  0  0  0  0  0  0  0
    2.0619   -3.6698    0.9709 O   0  0  0  0  0  0  0  0  0  0  0  0
    1.8025   -2.7776   -0.1286 C   0  0  1  0  0  0  0  0  0  0  0  0
    2.1659   -1.4509    0.2572 O   0  0  0  0  0  0  0  0  0  0  0  0
    1.9086   -0.4688   -0.7713 C   0  0  2  0  0  0  0  0  0  0  0  0
    0.3987   -0.2449   -0.9686 C   0  0  0  0  0  0  0  0  0  0  0  0
   -0.2365   -0.0225    0.2931 O   0  0  0  0  0  0  0  0  0  0  0  0
    2.6591   -0.8097   -2.0767 C   0  0  1  0  0  0  0  0  0  0  0  0
    4.0537   -0.5356   -1.8833 O   0  0  0  0  0  0  0  0  0  0  0  0
    2.4827   -2.2823   -2.4975 C   0  0  2  0  0  0  0  0  0  0  0  0
    1.1802   -2.4988   -3.0393 O   0  0  0  0  0  0  0  0  0  0  0  0
    2.6987   -3.2168   -1.3008 C   0  0  1  0  0  0  0  0  0  0  0  0
    4.0836   -3.1538   -0.9010 O   0  0  0  0  0  0  0  0  0  0  0  0
    3.5263   -1.5161    1.5473 H   0  0  0  0  0  0  0  0  0  0  0  0
    3.4777   -1.7700    4.3162 H   0  0  0  0  0  0  0  0  0  0  0  0
    2.2992   -1.0341    3.2281 H   0  0  0  0  0  0  0  0  0  0  0  0
    3.0302   -3.9440    5.0762 H   0  0  0  0  0  0  0  0  0  0  0  0
    0.9753   -5.5398    5.0418 H   0  0  0  0  0  0  0  0  0  0  0  0
    3.1396   -6.6945    3.4691 H   0  0  0  0  0  0  0  0  0  0  0  0
    2.2202   -7.4659    4.5922 H   0  0  0  0  0  0  0  0  0  0  0  0
    3.3862   -6.3718    5.0963 H   0  0  0  0  0  0  0  0  0  0  0  0
    0.2468   -6.5699    3.0105 H   0  0  0  0  0  0  0  0  0  0  0  0
    2.1781   -5.5869    1.2835 H   0  0  0  0  0  0  0  0  0  0  0  0
   -0.2164   -4.7594    1.3675 H   0  0  0  0  0  0  0  0  0  0  0  0
   -1.3271   -3.4738    2.8448 H   0  0  0  0  0  0  0  0  0  0  0  0
    0.6907   -2.4228    1.9956 H   0  0  0  0  0  0  0  0  0  0  0  0
    0.7401   -2.8515   -0.3846 H   0  0  0  0  0  0  0  0  0  0  0  0
    2.3249    0.4598   -0.3613 H   0  0  0  0  0  0  0  0  0  0  0  0
   -0.0981   -1.1073   -1.4164 H   0  0  0  0  0  0  0  0  0  0  0  0
    0.2111    0.6199   -1.6138 H   0  0  0  0  0  0  0  0  0  0  0  0
    0.0805    0.8367    0.6270 H   0  0  0  0  0  0  0  0  0  0  0  0
    2.3159   -0.1436   -2.8760 H   0  0  0  0  0  0  0  0  0  0  0  0
    4.4449   -1.2951   -1.4000 H   0  0  0  0  0  0  0  0  0  0  0  0
    3.2212   -2.5293   -3.2705 H   0  0  0  0  0  0  0  0  0  0  0  0
    1.2051   -2.2077   -3.9717 H   0  0  0  0  0  0  0  0  0  0  0  0
    2.4793   -4.2573   -1.5648 H   0  0  0  0  0  0  0  0  0  0  0  0
    4.1163   -3.4278    0.0385 H   0  0  0  0  0  0  0  0  0  0  0  0
 24  1  1  0
  1  2  1  0
  2 25  1  0
  2 26  1  0
  2  3  1  0
  3  4  2  0
  4 27  1  0
  4  5  1  0
  5 28  1  1
  5  6  1  0
  6 29  1  0
  6 30  1  0
  6 31  1  0
  5  7  1  0
  7 32  1  1
  7  8  1  0
  8 33  1  0
  7  9  1  0
  9 34  1  6
  9 10  1  0
 10 35  1  0
  3 11  1  0
  9 11  1  0
 11 36  1  6
 11 12  1  0
 12 13  1  0
 13 37  1  6
 13 14  1  0
 14 15  1  0
 15 38  1  1
 15 16  1  0
 16 39  1  0
 16 40  1  0
 16 17  1  0
 17 41  1  0
 15 18  1  0
 18 42  1  6
 18 19  1  0
 19 43  1  0
 18 20  1  0
 20 44  1  6
 20 21  1  0
 21 45  1  0
 13 22  1  0
 20 22  1  0
 22 46  1  6
 22 23  1  0
 23 47  1  0
M  CHG  1   6   1
M  END
>  <conformer_energy>  (1) 
131.95

>  <ligand_smiles>  (1) 
[NH3+][C@H]1C=C(CO)[C@@H](O[C@H]2O[C@H](CO)[C@@H](O)[C@H](O)[C@H]2O)[C@H](O)[C@H]1O

>  <ligand_conf_name>  (1) 
MOL_0_isomer_0_conf_0

>  <ligand_molecule_name>  (1) 
MOL_0_isomer_0

$$$$
