MOL_0_isomer_0_conf_0
     RDKit          3D

 65 67  0  0  0  0  0  0  0  0999 V2000
    3.1971    2.9686    2.5981 O   0  0  0  0  0  0  0  0  0  0  0  0
    4.2685    2.6513    1.7062 C   0  0  1  0  0  0  0  0  0  0  0  0
    3.9579    1.4217    0.8561 C   0  0  0  0  0  0  0  0  0  0  0  0
    3.0497    1.9510   -0.1550 N   0  0  0  0  0  0  0  0  0  0  0  0
    1.8962    1.3869   -0.6553 C   0  0  0  0  0  0  0  0  0  0  0  0
    1.1417    2.0426   -1.3863 O   0  0  0  0  0  0  0  0  0  0  0  0
    1.5236   -0.0576   -0.2359 C   0  0  1  0  0  0  0  0  0  0  0  0
    0.2488    0.0549    0.4738 N   0  0  0  0  0  0  0  0  0  0  0  0
    0.1959    0.5212    1.7678 C   0  0  0  0  0  0  0  0  0  0  0  0
    1.1895    0.8579    2.4072 O   0  0  0  0  0  0  0  0  0  0  0  0
   -1.1975    0.6337    2.3228 C   0  0  0  0  0  0  0  0  0  0  0  0
    1.4925   -1.0623   -1.4303 C   0  0  0  0  0  0  0  0  0  0  0  0
    2.8864   -1.1129   -2.0899 C   0  0  0  0  0  0  0  0  0  0  0  0
    1.1689   -2.4742   -0.8945 C   0  0  0  0  0  0  0  0  0  0  0  0
    0.4550   -0.7127   -2.5140 C   0  0  0  0  0  0  0  0  0  0  0  0
    3.3532    3.3696   -0.4046 C   0  0  2  0  0  0  0  0  0  0  0  0
    3.9024    3.5275   -1.8375 C   0  0  0  0  0  0  0  0  0  0  0  0
    5.0984    3.5065   -2.1179 O   0  0  0  0  0  0  0  0  0  0  0  0
    2.9172    3.5978   -2.7957 N   0  0  0  0  0  0  0  0  0  0  0  0
    3.2192    3.6703   -4.2015 C   0  0  0  0  0  0  0  0  0  0  0  0
    2.0105    4.1006   -4.9894 C   0  0  0  0  0  0  0  0  0  0  0  0
    1.9134    5.4067   -5.4859 C   0  0  0  0  0  0  0  0  0  0  0  0
    0.7824    5.8113   -6.1999 C   0  0  0  0  0  0  0  0  0  0  0  0
   -0.2729    4.9188   -6.4216 C   0  0  0  0  0  0  0  0  0  0  0  0
   -1.4618    5.3455   -7.1493 C   0  0  0  0  0  0  0  0  0  0  0  0
   -1.4050    5.5264   -8.8558 S   0  0  0  0  0  0  0  0  0  0  0  0
   -3.0529    5.9875   -8.8450 C   0  0  0  0  0  0  0  0  0  0  0  0
   -3.6406    6.0163   -7.6707 N   0  0  0  0  0  0  0  0  0  0  0  0
   -2.7326    5.6508   -6.6862 C   0  0  0  0  0  0  0  0  0  0  0  0
   -3.1954    5.6274   -5.2734 C   0  0  0  0  0  0  0  0  0  0  0  0
   -0.1852    3.6175   -5.9153 C   0  0  0  0  0  0  0  0  0  0  0  0
    0.9480    3.2111   -5.2059 C   0  0  0  0  0  0  0  0  0  0  0  0
    4.3870    3.7577    0.6651 C   0  0  0  0  0  0  0  0  0  0  0  0
    2.5279    2.2494    2.5688 H   0  0  0  0  0  0  0  0  0  0  0  0
    5.1779    2.5301    2.3005 H   0  0  0  0  0  0  0  0  0  0  0  0
    3.5353    0.6154    1.4514 H   0  0  0  0  0  0  0  0  0  0  0  0
    4.8515    1.0616    0.3350 H   0  0  0  0  0  0  0  0  0  0  0  0
    2.2420   -0.4470    0.4862 H   0  0  0  0  0  0  0  0  0  0  0  0
   -0.6115   -0.0221   -0.0506 H   0  0  0  0  0  0  0  0  0  0  0  0
   -1.8833   -0.0492    1.8145 H   0  0  0  0  0  0  0  0  0  0  0  0
   -1.5511    1.6596    2.1928 H   0  0  0  0  0  0  0  0  0  0  0  0
   -1.1843    0.3822    3.3866 H   0  0  0  0  0  0  0  0  0  0  0  0
    2.9178   -1.8635   -2.8877 H   0  0  0  0  0  0  0  0  0  0  0  0
    3.1553   -0.1502   -2.5375 H   0  0  0  0  0  0  0  0  0  0  0  0
    3.6615   -1.3721   -1.3607 H   0  0  0  0  0  0  0  0  0  0  0  0
    1.2251   -3.2241   -1.6928 H   0  0  0  0  0  0  0  0  0  0  0  0
    0.1587   -2.5196   -0.4721 H   0  0  0  0  0  0  0  0  0  0  0  0
    1.8746   -2.7741   -0.1108 H   0  0  0  0  0  0  0  0  0  0  0  0
   -0.5577   -0.6435   -2.1061 H   0  0  0  0  0  0  0  0  0  0  0  0
    0.6868    0.2322   -3.0132 H   0  0  0  0  0  0  0  0  0  0  0  0
    0.4342   -1.4833   -3.2942 H   0  0  0  0  0  0  0  0  0  0  0  0
    2.4363    3.9609   -0.2926 H   0  0  0  0  0  0  0  0  0  0  0  0
    1.9683    3.3586   -2.5082 H   0  0  0  0  0  0  0  0  0  0  0  0
    3.5521    2.6785   -4.5311 H   0  0  0  0  0  0  0  0  0  0  0  0
    4.0600    4.3568   -4.3576 H   0  0  0  0  0  0  0  0  0  0  0  0
    2.7175    6.1200   -5.3161 H   0  0  0  0  0  0  0  0  0  0  0  0
    0.7266    6.8310   -6.5747 H   0  0  0  0  0  0  0  0  0  0  0  0
   -3.5758    6.2397   -9.7579 H   0  0  0  0  0  0  0  0  0  0  0  0
   -4.1541    6.1451   -5.1696 H   0  0  0  0  0  0  0  0  0  0  0  0
   -2.4733    6.1239   -4.6178 H   0  0  0  0  0  0  0  0  0  0  0  0
   -3.3255    4.5961   -4.9330 H   0  0  0  0  0  0  0  0  0  0  0  0
   -0.9971    2.9110   -6.0722 H   0  0  0  0  0  0  0  0  0  0  0  0
    0.9959    2.1966   -4.8156 H   0  0  0  0  0  0  0  0  0  0  0  0
    4.1667    4.7489    1.0755 H   0  0  0  0  0  0  0  0  0  0  0  0
    5.4066    3.7784    0.2659 H   0  0  0  0  0  0  0  0  0  0  0  0
 34  1  1  0
  1  2  1  0
  2 35  1  1
  2  3  1  0
  3 36  1  0
  3 37  1  0
  3  4  1  0
  4  5  1  0
  5  6  2  0
  5  7  1  0
  7 38  1  1
  7  8  1  0
  8 39  1  0
  8  9  1  0
  9 10  2  0
  9 11  1  0
 11 40  1  0
 11 41  1  0
 11 42  1  0
  7 12  1  0
 12 13  1  0
 13 43  1  0
 13 44  1  0
 13 45  1  0
 12 14  1  0
 14 46  1  0
 14 47  1  0
 14 48  1  0
 12 15  1  0
 15 49  1  0
 15 50  1  0
 15 51  1  0
  4 16  1  0
 16 52  1  6
 16 17  1  0
 17 18  2  0
 17 19  1  0
 19 53  1  0
 19 20  1  0
 20 54  1  0
 20 55  1  0
 20 21  1  0
 21 22  2  0
 22 56  1  0
 22 23  1  0
 23 57  1  0
 23 24  2  0
 24 25  1  0
 25 26  1  0
 26 27  1  0
 27 58  1  0
 27 28  2  0
 25 29  2  0
 28 29  1  0
 29 30  1  0
 30 59  1  0
 30 60  1  0
 30 61  1  0
 24 31  1  0
 31 62  1  0
 21 32  1  0
 31 32  2  0
 32 63  1  0
  2 33  1  0
 16 33  1  0
 33 64  1  0
 33 65  1  0
M  END
>  <conformer_energy>  (1) 
58.53

>  <ligand_smiles>  (1) 
CC(=O)N[C@H](C(=O)N1C[C@H](O)C[C@H]1C(=O)NCc1ccc(-c2scnc2C)cc1)C(C)(C)C

>  <ligand_conf_name>  (1) 
MOL_0_isomer_0_conf_0

>  <ligand_molecule_name>  (1) 
MOL_0_isomer_0

$$$$
