MOL_0_isomer_0_conf_0
     RDKit          3D

 46 48  0  0  0  0  0  0  0  0999 V2000
    0.5446    2.8553   -2.7653 O   0  0  0  0  0  0  0  0  0  0  0  0
    1.6436    1.9309   -2.6461 C   0  0  1  0  0  0  0  0  0  0  0  0
    2.9141    2.6865   -2.9876 C   0  0  1  0  0  0  0  0  0  0  0  0
    2.6831    3.6283   -4.0362 O   0  0  0  0  0  0  0  0  0  0  0  0
    3.2285    3.3554   -1.6512 C   0  0  2  0  0  0  0  0  0  0  0  0
    4.6268    3.6618   -1.4319 N   0  0  0  0  0  0  0  0  0  0  0  0
    5.1211    4.9055   -1.1331 C   0  0  0  0  0  0  0  0  0  0  0  0
    6.4221    4.8879   -0.9314 N   0  0  0  0  0  0  0  0  0  0  0  0
    6.7847    3.5671   -1.1100 C   0  0  0  0  0  0  0  0  0  0  0  0
    8.0218    2.9061   -1.0188 C   0  0  0  0  0  0  0  0  0  0  0  0
    9.1938    3.5512   -0.6964 N   0  0  0  0  0  0  0  0  0  0  0  0
    8.0640    1.5743   -1.2521 N   0  0  0  0  0  0  0  0  0  0  0  0
    6.9086    0.9467   -1.5613 C   0  0  0  0  0  0  0  0  0  0  0  0
    5.6710    1.4690   -1.6811 N   0  0  0  0  0  0  0  0  0  0  0  0
    5.6827    2.7898   -1.4320 C   0  0  0  0  0  0  0  0  0  0  0  0
    2.7783    2.4750   -0.6019 O   0  0  0  0  0  0  0  0  0  0  0  0
    1.8473    1.5302   -1.1820 C   0  0  2  0  0  0  0  0  0  0  0  0
    2.3987    0.1053   -1.0287 C   0  0  0  0  0  0  0  0  0  0  0  0
    1.7993   -0.7499    0.4941 S   0  0  0  0  0  0  0  0  0  0  0  0
    0.0553   -1.0078    0.0274 C   0  0  0  0  0  0  0  0  0  0  0  0
   -0.8682   -0.0424    0.7764 C   0  0  0  0  0  0  0  0  0  0  0  0
   -2.2343    0.1281    0.1216 C   0  0  1  0  0  0  0  0  0  0  0  0
   -2.2182    0.5106   -1.3935 C   0  0  0  0  0  0  0  0  0  0  0  0
   -1.3061    1.2608   -1.8120 O   0  0  0  0  0  0  0  0  0  0  0  0
   -3.1488   -0.1210   -1.9893 O   0  0  0  0  0  1  0  0  0  0  0  0
   -3.0707   -1.1288    0.2976 N   0  0  0  0  0  4  0  0  0  0  0  0
   -0.2651    2.3406   -2.4907 H   0  0  0  0  0  0  0  0  0  0  0  0
    1.4378    1.1010   -3.3292 H   0  0  0  0  0  0  0  0  0  0  0  0
    3.6952    1.9923   -3.3068 H   0  0  0  0  0  0  0  0  0  0  0  0
    1.7209    3.8220   -3.9889 H   0  0  0  0  0  0  0  0  0  0  0  0
    2.6697    4.2954   -1.5535 H   0  0  0  0  0  0  0  0  0  0  0  0
    4.4903    5.7817   -1.0684 H   0  0  0  0  0  0  0  0  0  0  0  0
   10.0359    3.0041   -0.6174 H   0  0  0  0  0  0  0  0  0  0  0  0
    9.1658    4.5431   -0.5065 H   0  0  0  0  0  0  0  0  0  0  0  0
    6.9898   -0.1223   -1.7367 H   0  0  0  0  0  0  0  0  0  0  0  0
    0.9152    1.6637   -0.6351 H   0  0  0  0  0  0  0  0  0  0  0  0
    3.4900    0.1131   -0.9685 H   0  0  0  0  0  0  0  0  0  0  0  0
    2.1155   -0.5317   -1.8728 H   0  0  0  0  0  0  0  0  0  0  0  0
   -0.0427   -0.9371   -1.0578 H   0  0  0  0  0  0  0  0  0  0  0  0
   -0.2032   -2.0375    0.2972 H   0  0  0  0  0  0  0  0  0  0  0  0
   -0.9947   -0.3915    1.8102 H   0  0  0  0  0  0  0  0  0  0  0  0
   -0.4150    0.9523    0.8507 H   0  0  0  0  0  0  0  0  0  0  0  0
   -2.7985    0.9102    0.6421 H   0  0  0  0  0  0  0  0  0  0  0  0
   -2.5400   -1.9994    0.2339 H   0  0  0  0  0  0  0  0  0  0  0  0
   -3.7132   -1.1053    1.0909 H   0  0  0  0  0  0  0  0  0  0  0  0
   -3.6360   -1.1018   -0.5902 H   0  0  0  0  0  0  0  0  0  0  0  0
 27  1  1  0
  1  2  1  0
  2 28  1  6
  2  3  1  0
  3 29  1  6
  3  4  1  0
  4 30  1  0
  3  5  1  0
  5 31  1  6
  5  6  1  0
  6  7  1  0
  7 32  1  0
  7  8  2  0
  8  9  1  0
  9 10  1  0
 10 11  1  0
 11 33  1  0
 11 34  1  0
 10 12  2  0
 12 13  1  0
 13 35  1  0
 13 14  2  0
  9 15  2  0
  6 15  1  0
 14 15  1  0
  5 16  1  0
  2 17  1  0
 16 17  1  0
 17 36  1  1
 17 18  1  0
 18 37  1  0
 18 38  1  0
 18 19  1  0
 19 20  1  0
 20 39  1  0
 20 40  1  0
 20 21  1  0
 21 41  1  0
 21 42  1  0
 21 22  1  0
 22 43  1  1
 22 23  1  0
 23 24  2  0
 23 25  1  0
 22 26  1  0
 26 44  1  0
 26 45  1  0
 26 46  1  0
M  CHG  2  25  -1  26   1
M  END
>  <conformer_energy>  (1) 
55.95

>  <ligand_smiles>  (1) 
Nc1ncnc2c1ncn2[C@@H]1O[C@H](CSCC[C@H]([NH3+])C(=O)[O-])[C@@H](O)[C@H]1O

>  <ligand_conf_name>  (1) 
MOL_0_isomer_0_conf_0

>  <ligand_molecule_name>  (1) 
MOL_0_isomer_0

$$$$
