MOL_0_isomer_0_conf_0
     RDKit          3D

 33 33  0  0  0  0  0  0  0  0999 V2000
    3.2702   -0.0455    1.0443 O   0  0  0  0  0  0  0  0  0  0  0  0
    2.1509   -0.7534    0.5217 C   0  0  2  0  0  0  0  0  0  0  0  0
    2.5659   -1.7675   -0.3888 O   0  0  0  0  0  0  0  0  0  0  0  0
    3.0300   -1.3391   -1.6806 C   0  0  2  0  0  0  0  0  0  0  0  0
    4.5255   -0.9839   -1.6764 C   0  0  0  0  0  0  0  0  0  0  0  0
    4.9936   -0.5207   -2.9364 O   0  0  0  0  0  0  0  0  0  0  0  0
    4.9661   -1.5302   -4.2217 S   0  0  0  0  0  6  0  0  0  0  0  0
    3.5471   -1.5784   -4.5775 O   0  0  0  0  0  0  0  0  0  0  0  0
    5.8080   -0.8492   -5.1962 O   0  0  0  0  0  0  0  0  0  0  0  0
    5.5007   -2.7821   -3.7029 O   0  0  0  0  0  1  0  0  0  0  0  0
    2.1473   -0.2519   -2.3424 C   0  0  1  0  0  0  0  0  0  0  0  0
    0.9971   -0.8864   -2.9398 O   0  0  0  0  0  0  0  0  0  0  0  0
    1.6738    0.8246   -1.3598 C   0  0  2  0  0  0  0  0  0  0  0  0
    2.7572    1.6969   -0.9956 O   0  0  0  0  0  0  0  0  0  0  0  0
    1.0857    0.1836   -0.0955 C   0  0  1  0  0  0  0  0  0  0  0  0
   -0.1621   -0.5202   -0.3996 N   0  0  0  0  0  0  0  0  0  0  0  0
   -1.1361   -0.7464    0.5348 C   0  0  0  0  0  0  0  0  0  0  0  0
   -1.0957   -0.3120    1.6809 O   0  0  0  0  0  0  0  0  0  0  0  0
   -2.2969   -1.5510    0.0180 C   0  0  0  0  0  0  0  0  0  0  0  0
    3.3487    0.7765    0.5197 H   0  0  0  0  0  0  0  0  0  0  0  0
    1.7079   -1.2793    1.3739 H   0  0  0  0  0  0  0  0  0  0  0  0
    2.9315   -2.2485   -2.2838 H   0  0  0  0  0  0  0  0  0  0  0  0
    5.1223   -1.8391   -1.3379 H   0  0  0  0  0  0  0  0  0  0  0  0
    4.7335   -0.1879   -0.9579 H   0  0  0  0  0  0  0  0  0  0  0  0
    2.6724    0.2518   -3.1593 H   0  0  0  0  0  0  0  0  0  0  0  0
    1.3888   -1.3883   -3.6947 H   0  0  0  0  0  0  0  0  0  0  0  0
    0.9044    1.4461   -1.8347 H   0  0  0  0  0  0  0  0  0  0  0  0
    3.1203    2.0590   -1.8283 H   0  0  0  0  0  0  0  0  0  0  0  0
    0.8679    0.9755    0.6327 H   0  0  0  0  0  0  0  0  0  0  0  0
   -0.2089   -0.9721   -1.3138 H   0  0  0  0  0  0  0  0  0  0  0  0
   -1.9643   -2.2910   -0.7155 H   0  0  0  0  0  0  0  0  0  0  0  0
   -3.0205   -0.8783   -0.4501 H   0  0  0  0  0  0  0  0  0  0  0  0
   -2.7734   -2.0777    0.8493 H   0  0  0  0  0  0  0  0  0  0  0  0
 20  1  1  0
  1  2  1  0
  2 21  1  1
  2  3  1  0
  3  4  1  0
  4 22  1  6
  4  5  1  0
  5 23  1  0
  5 24  1  0
  5  6  1  0
  6  7  1  0
  7  8  2  0
  7  9  2  0
  7 10  1  0
  4 11  1  0
 11 25  1  6
 11 12  1  0
 12 26  1  0
 11 13  1  0
 13 27  1  6
 13 14  1  0
 14 28  1  0
  2 15  1  0
 13 15  1  0
 15 29  1  1
 15 16  1  0
 16 30  1  0
 16 17  1  0
 17 18  2  0
 17 19  1  0
 19 31  1  0
 19 32  1  0
 19 33  1  0
M  CHG  1  10  -1
M  END
>  <conformer_energy>  (1) 
-9.05

>  <ligand_smiles>  (1) 
CC(=O)N[C@@H]1[C@@H](O)[C@H](O)[C@@H](COS(=O)(=O)[O-])O[C@H]1O

>  <ligand_conf_name>  (1) 
MOL_0_isomer_0_conf_0

>  <ligand_molecule_name>  (1) 
MOL_0_isomer_0

$$$$
