MOL_0_isomer_0_conf_0
     RDKit          3D

 31 33  0  0  0  0  0  0  0  0999 V2000
   -5.0344   -0.2879    0.4452 C   0  0  0  0  0  0  0  0  0  0  0  0
   -4.5937   -0.2385    1.7206 N   0  0  0  0  0  0  0  0  0  0  0  0
   -3.2623   -0.0474    1.9009 C   0  0  0  0  0  0  0  0  0  0  0  0
   -2.3511    0.0740    0.8591 C   0  0  0  0  0  0  0  0  0  0  0  0
   -0.9160    0.2745    1.1786 C   0  0  0  0  0  0  0  0  0  0  0  0
   -0.6261    0.7787    2.2559 O   0  0  0  0  0  0  0  0  0  0  0  0
   -0.0331   -0.2206    0.2378 N   0  0  0  0  0  0  0  0  0  0  0  0
    1.3786   -0.0811    0.2255 C   0  0  0  0  0  0  0  0  0  0  0  0
    2.0618   -1.1882   -0.3076 C   0  0  0  0  0  0  0  0  0  0  0  0
    3.4508   -1.2302   -0.3306 C   0  0  0  0  0  0  0  0  0  0  0  0
    4.1790   -0.1534    0.1595 C   0  0  0  0  0  0  0  0  0  0  0  0
    3.5336    0.9934    0.6420 C   0  0  0  0  0  0  0  0  0  0  0  0
    4.3110    2.0804    1.0776 C   0  0  0  0  0  0  0  0  0  0  0  0
    3.7180    3.2643    1.5061 C   0  0  0  0  0  0  0  0  0  0  0  0
    2.3376    3.3801    1.4876 C   0  0  0  0  0  0  0  0  0  0  0  0
    1.5530    2.3030    1.0637 C   0  0  0  0  0  0  0  0  0  0  0  0
    2.1132    1.0630    0.6646 C   0  0  0  0  0  0  0  0  0  0  0  0
   -2.8420    0.0308   -0.4491 C   0  0  0  0  0  0  0  0  0  0  0  0
   -4.2074   -0.1562   -0.6598 C   0  0  0  0  0  0  0  0  0  0  0  0
   -6.1052   -0.4338    0.3309 H   0  0  0  0  0  0  0  0  0  0  0  0
   -2.9428   -0.0005    2.9396 H   0  0  0  0  0  0  0  0  0  0  0  0
   -0.4038   -0.9237   -0.3882 H   0  0  0  0  0  0  0  0  0  0  0  0
    1.5175   -2.0571   -0.6691 H   0  0  0  0  0  0  0  0  0  0  0  0
    3.9661   -2.1055   -0.7169 H   0  0  0  0  0  0  0  0  0  0  0  0
    5.2659   -0.2074    0.1414 H   0  0  0  0  0  0  0  0  0  0  0  0
    5.3973    2.0166    1.0756 H   0  0  0  0  0  0  0  0  0  0  0  0
    4.3329    4.0957    1.8386 H   0  0  0  0  0  0  0  0  0  0  0  0
    1.8602    4.3044    1.8018 H   0  0  0  0  0  0  0  0  0  0  0  0
    0.4793    2.4593    1.0393 H   0  0  0  0  0  0  0  0  0  0  0  0
   -2.1876    0.1697   -1.3045 H   0  0  0  0  0  0  0  0  0  0  0  0
   -4.6206   -0.1879   -1.6623 H   0  0  0  0  0  0  0  0  0  0  0  0
 20  1  1  0
  1  2  2  0
  2  3  1  0
  3 21  1  0
  3  4  2  0
  4  5  1  0
  5  6  2  0
  5  7  1  0
  7 22  1  0
  7  8  1  0
  8  9  2  0
  9 23  1  0
  9 10  1  0
 10 24  1  0
 10 11  2  0
 11 25  1  0
 11 12  1  0
 12 13  1  0
 13 26  1  0
 13 14  2  0
 14 27  1  0
 14 15  1  0
 15 28  1  0
 15 16  2  0
 16 29  1  0
  8 17  1  0
 12 17  2  0
 16 17  1  0
  4 18  1  0
 18 30  1  0
  1 19  1  0
 18 19  2  0
 19 31  1  0
M  END
>  <conformer_energy>  (1) 
66.73

>  <ligand_smiles>  (1) 
O=C(Nc1cccc2ccccc12)c1cccnc1

>  <ligand_conf_name>  (1) 
MOL_0_isomer_0_conf_0

>  <ligand_molecule_name>  (1) 
MOL_0_isomer_0

$$$$
