MOL_0_isomer_0_conf_0
     RDKit          3D

 43 44  0  0  0  0  0  0  0  0999 V2000
    0.2805   -4.3883   -1.8741 C   0  0  0  0  0  0  0  0  0  0  0  0
    0.6122   -4.2433   -0.5293 C   0  0  0  0  0  0  0  0  0  0  0  0
    1.2711   -3.0931   -0.0916 C   0  0  0  0  0  0  0  0  0  0  0  0
    1.6017   -2.0701   -0.9945 C   0  0  0  0  0  0  0  0  0  0  0  0
    2.2891   -0.8563   -0.5344 C   0  0  0  0  0  0  0  0  0  0  0  0
    3.6827   -0.8081   -0.3944 C   0  0  0  0  0  0  0  0  0  0  0  0
    4.4787   -1.9068   -0.6189 N   0  0  0  0  0  0  0  0  0  0  0  0
    4.3329    0.2845    0.0409 N   0  0  0  0  0  0  0  0  0  0  0  0
    3.5956    1.3600    0.3343 C   0  0  0  0  0  0  0  0  0  0  0  0
    4.2449    2.4757    0.7765 N   0  0  0  0  0  0  0  0  0  0  0  0
    2.2714    1.3880    0.2196 N   0  0  0  0  0  4  0  0  0  0  0  0
    1.5835    0.3166   -0.2107 C   0  0  0  0  0  0  0  0  0  0  0  0
    0.0859    0.4523   -0.2658 C   0  0  0  0  0  0  0  0  0  0  0  0
   -0.5576    0.1108    1.0804 C   0  0  0  0  0  0  0  0  0  0  0  0
   -2.0793    0.2556    1.0168 C   0  0  0  0  0  0  0  0  0  0  0  0
   -2.7873   -0.1862    2.3013 C   0  0  0  0  0  0  0  0  0  0  0  0
   -2.4007    0.5775    3.5701 C   0  0  0  0  0  0  0  0  0  0  0  0
   -2.6723    2.0713    3.4875 C   0  0  0  0  0  0  0  0  0  0  0  0
    1.2698   -2.2359   -2.3493 C   0  0  0  0  0  0  0  0  0  0  0  0
    0.6109   -3.3874   -2.7845 C   0  0  0  0  0  0  0  0  0  0  0  0
   -0.2296   -5.2872   -2.2146 H   0  0  0  0  0  0  0  0  0  0  0  0
    0.3623   -5.0321    0.1774 H   0  0  0  0  0  0  0  0  0  0  0  0
    1.5313   -3.0114    0.9625 H   0  0  0  0  0  0  0  0  0  0  0  0
    5.4736   -1.7852   -0.4738 H   0  0  0  0  0  0  0  0  0  0  0  0
    4.1875   -2.6409   -1.2523 H   0  0  0  0  0  0  0  0  0  0  0  0
    3.8391    3.3569    1.0404 H   0  0  0  0  0  0  0  0  0  0  0  0
    5.2542    2.3777    0.8438 H   0  0  0  0  0  0  0  0  0  0  0  0
    1.7990    2.2460    0.4755 H   0  0  0  0  0  0  0  0  0  0  0  0
   -0.3342   -0.1675   -1.0648 H   0  0  0  0  0  0  0  0  0  0  0  0
   -0.1600    1.4876   -0.5351 H   0  0  0  0  0  0  0  0  0  0  0  0
   -0.3002   -0.9141    1.3727 H   0  0  0  0  0  0  0  0  0  0  0  0
   -0.1493    0.7723    1.8536 H   0  0  0  0  0  0  0  0  0  0  0  0
   -2.3450    1.2918    0.7780 H   0  0  0  0  0  0  0  0  0  0  0  0
   -2.4628   -0.3582    0.1919 H   0  0  0  0  0  0  0  0  0  0  0  0
   -2.5914   -1.2532    2.4656 H   0  0  0  0  0  0  0  0  0  0  0  0
   -3.8698   -0.0929    2.1481 H   0  0  0  0  0  0  0  0  0  0  0  0
   -1.3451    0.4098    3.8102 H   0  0  0  0  0  0  0  0  0  0  0  0
   -2.9759    0.1649    4.4079 H   0  0  0  0  0  0  0  0  0  0  0  0
   -2.4726    2.5432    4.4550 H   0  0  0  0  0  0  0  0  0  0  0  0
   -3.7166    2.2671    3.2244 H   0  0  0  0  0  0  0  0  0  0  0  0
   -2.0307    2.5550    2.7451 H   0  0  0  0  0  0  0  0  0  0  0  0
    1.5246   -1.4748   -3.0846 H   0  0  0  0  0  0  0  0  0  0  0  0
    0.3583   -3.5093   -3.8359 H   0  0  0  0  0  0  0  0  0  0  0  0
 21  1  1  0
  1  2  2  0
  2 22  1  0
  2  3  1  0
  3 23  1  0
  3  4  2  0
  4  5  1  0
  5  6  2  0
  6  7  1  0
  7 24  1  0
  7 25  1  0
  6  8  1  0
  8  9  2  0
  9 10  1  0
 10 26  1  0
 10 27  1  0
  9 11  1  0
 11 28  1  0
  5 12  1  0
 11 12  2  0
 12 13  1  0
 13 29  1  0
 13 30  1  0
 13 14  1  0
 14 31  1  0
 14 32  1  0
 14 15  1  0
 15 33  1  0
 15 34  1  0
 15 16  1  0
 16 35  1  0
 16 36  1  0
 16 17  1  0
 17 37  1  0
 17 38  1  0
 17 18  1  0
 18 39  1  0
 18 40  1  0
 18 41  1  0
  4 19  1  0
 19 42  1  0
  1 20  1  0
 19 20  2  0
 20 43  1  0
M  CHG  1  11   1
M  END
>  <conformer_energy>  (1) 
-52.62

>  <ligand_smiles>  (1) 
CCCCCCc1[nH+]c(N)nc(N)c1-c1ccccc1

>  <ligand_conf_name>  (1) 
MOL_0_isomer_0_conf_0

>  <ligand_molecule_name>  (1) 
MOL_0_isomer_0

$$$$
