MOL_0_isomer_0_conf_0
     RDKit          3D

 49 51  0  0  0  0  0  0  0  0999 V2000
    2.6549   11.0603   -1.1137 O   0  0  0  0  0  0  0  0  0  0  0  0
    1.7854   10.5387   -2.0482 C   0  0  0  0  0  0  0  0  0  0  0  0
    0.8423   11.3916   -2.6070 C   0  0  0  0  0  0  0  0  0  0  0  0
   -0.0372   10.8598   -3.5423 C   0  0  0  0  0  0  0  0  0  0  0  0
   -1.0652   11.7166   -4.1363 N   0  0  0  0  0  4  0  0  0  0  0  0
   -1.1513   12.8869   -3.7368 O   0  0  0  0  0  0  0  0  0  0  0  0
   -1.8051   11.2275   -5.0030 O   0  0  0  0  0  1  0  0  0  0  0  0
    0.0408    9.5123   -3.9093 C   0  0  0  0  0  0  0  0  0  0  0  0
    1.0055    8.6655   -3.3184 C   0  0  0  0  0  0  0  0  0  0  0  0
    0.9516    7.2195   -3.7736 C   0  0  0  0  0  0  0  0  0  0  0  0
    0.2013    6.8545   -4.6755 O   0  0  0  0  0  0  0  0  0  0  0  0
    1.7767    6.3559   -3.1055 N   0  0  0  0  0  0  0  0  0  0  0  0
    1.8482    4.9534   -3.3641 C   0  0  0  0  0  0  0  0  0  0  0  0
    2.9788    4.4149   -2.5438 C   0  0  0  0  0  0  0  0  0  0  0  0
    2.8422    3.6103   -1.4798 C   0  0  0  0  0  0  0  0  0  0  0  0
    3.9537    3.1590   -0.5748 C   0  0  1  0  0  0  0  0  0  0  0  0
    3.5160    1.9352    0.0624 O   0  0  0  0  0  0  0  0  0  0  0  0
    4.3730    0.8581   -0.3707 C   0  0  1  0  0  0  0  0  0  0  0  0
    3.5713   -0.3298   -0.6349 N   0  0  0  0  0  0  0  0  0  0  0  0
    4.0794   -1.5461   -1.0029 C   0  0  0  0  0  0  0  0  0  0  0  0
    3.1369   -2.4570   -1.0914 N   0  0  0  0  0  0  0  0  0  0  0  0
    1.9474   -1.8076   -0.7772 C   0  0  0  0  0  0  0  0  0  0  0  0
    0.6250   -2.5167   -0.7343 C   0  0  0  0  0  0  0  0  0  0  0  0
    0.4112   -3.1205    0.4690 F   0  0  0  0  0  0  0  0  0  0  0  0
    0.5030   -3.4840   -1.6854 F   0  0  0  0  0  0  0  0  0  0  0  0
   -0.4180   -1.6618   -0.9195 F   0  0  0  0  0  0  0  0  0  0  0  0
    2.2165   -0.4761   -0.5036 C   0  0  0  0  0  0  0  0  0  0  0  0
    5.1462    1.3654   -1.5899 C   0  0  2  0  0  0  0  0  0  0  0  0
    6.4177    0.7337   -1.7523 O   0  0  0  0  0  0  0  0  0  0  0  0
    5.2977    2.8389   -1.2477 C   0  0  2  0  0  0  0  0  0  0  0  0
    6.3955    2.9659   -0.3195 O   0  0  0  0  0  0  0  0  0  0  0  0
    1.9344    9.1576   -2.3455 C   0  0  0  0  0  0  0  0  0  0  0  0
    2.8466    8.4734   -1.7484 O   0  0  0  0  0  1  0  0  0  0  0  0
    3.1688   10.2366   -0.9146 H   0  0  0  0  0  0  0  0  0  0  0  0
    0.8133   12.4329   -2.2946 H   0  0  0  0  0  0  0  0  0  0  0  0
   -0.6504    9.0957   -4.6407 H   0  0  0  0  0  0  0  0  0  0  0  0
    2.3616    6.8160   -2.3876 H   0  0  0  0  0  0  0  0  0  0  0  0
    2.0367    4.7934   -4.4314 H   0  0  0  0  0  0  0  0  0  0  0  0
    0.8849    4.4954   -3.1141 H   0  0  0  0  0  0  0  0  0  0  0  0
    3.9498    4.8057   -2.8226 H   0  0  0  0  0  0  0  0  0  0  0  0
    1.8408    3.3094   -1.1879 H   0  0  0  0  0  0  0  0  0  0  0  0
    4.0745    3.8999    0.2253 H   0  0  0  0  0  0  0  0  0  0  0  0
    5.0398    0.5964    0.4608 H   0  0  0  0  0  0  0  0  0  0  0  0
    5.1348   -1.7069   -1.1873 H   0  0  0  0  0  0  0  0  0  0  0  0
    1.5694    0.3466   -0.2195 H   0  0  0  0  0  0  0  0  0  0  0  0
    4.5675    1.2357   -2.5125 H   0  0  0  0  0  0  0  0  0  0  0  0
    7.0453    1.2746   -1.2244 H   0  0  0  0  0  0  0  0  0  0  0  0
    5.5580    3.4465   -2.1205 H   0  0  0  0  0  0  0  0  0  0  0  0
    6.3952    3.8962   -0.0120 H   0  0  0  0  0  0  0  0  0  0  0  0
 34  1  1  0
  1  2  1  0
  2  3  2  0
  3 35  1  0
  3  4  1  0
  4  5  1  0
  5  6  2  0
  5  7  1  0
  4  8  2  0
  8 36  1  0
  8  9  1  0
  9 10  1  0
 10 11  2  0
 10 12  1  0
 12 37  1  0
 12 13  1  0
 13 38  1  0
 13 39  1  0
 13 14  1  0
 14 40  1  0
 14 15  2  0
 15 41  1  0
 15 16  1  0
 16 42  1  1
 16 17  1  0
 17 18  1  0
 18 43  1  1
 18 19  1  0
 19 20  1  0
 20 44  1  0
 20 21  2  0
 21 22  1  0
 22 23  1  0
 23 24  1  0
 23 25  1  0
 23 26  1  0
 19 27  1  0
 22 27  2  0
 27 45  1  0
 18 28  1  0
 28 46  1  6
 28 29  1  0
 29 47  1  0
 16 30  1  0
 28 30  1  0
 30 48  1  6
 30 31  1  0
 31 49  1  0
  2 32  1  0
  9 32  2  0
 32 33  1  0
M  CHG  3   5   1   7  -1  33  -1
M  END
>  <conformer_energy>  (1) 
122.75

>  <ligand_smiles>  (1) 
O=C(NC/C=C/[C@H]1O[C@@H](n2cnc(C(F)(F)F)c2)[C@H](O)[C@@H]1O)c1cc([N+](=O)[O-])cc(O)c1[O-]

>  <ligand_conf_name>  (1) 
MOL_0_isomer_0_conf_0

>  <ligand_molecule_name>  (1) 
MOL_0_isomer_0

$$$$
