MOL_0_isomer_0_conf_0
     RDKit          3D

 58 63  0  0  0  0  0  0  0  0999 V2000
   11.5179    1.6590   -1.2750 C   0  0  0  0  0  0  0  0  0  0  0  0
   10.5184    1.5989   -2.2376 C   0  0  0  0  0  0  0  0  0  0  0  0
    9.1796    1.7254   -1.8600 C   0  0  0  0  0  0  0  0  0  0  0  0
    8.8075    1.9175   -0.5077 C   0  0  0  0  0  0  0  0  0  0  0  0
    7.4689    2.0471   -0.0563 C   0  0  0  0  0  0  0  0  0  0  0  0
    6.3323    2.0098   -1.0035 C   0  0  0  0  0  0  0  0  0  0  0  0
    6.2529    2.8909   -1.8564 O   0  0  0  0  0  0  0  0  0  0  0  0
    5.3283    0.9510   -0.8529 C   0  0  0  0  0  0  0  0  0  0  0  0
    4.0035    1.0625   -1.3049 C   0  0  0  0  0  0  0  0  0  0  0  0
    3.3232    2.1957   -1.9941 C   0  0  0  0  0  0  0  0  0  0  0  0
    3.3745   -0.1087   -0.9930 N   0  0  0  0  0  0  0  0  0  0  0  0
    4.2431   -0.9745   -0.3954 C   0  0  0  0  0  0  0  0  0  0  0  0
    3.9419   -2.2671    0.0147 C   0  0  0  0  0  0  0  0  0  0  0  0
    4.9414   -2.9888    0.6488 C   0  0  0  0  0  0  0  0  0  0  0  0
    6.2105   -2.4233    0.8037 C   0  0  0  0  0  0  0  0  0  0  0  0
    6.4955   -1.1212    0.3429 C   0  0  0  0  0  0  0  0  0  0  0  0
    5.4727   -0.3594   -0.2653 C   0  0  0  0  0  0  0  0  0  0  0  0
    2.6798   -2.7807   -0.1712 O   0  0  0  0  0  0  0  0  0  0  0  0
    2.0074   -2.1162   -1.2747 C   0  0  0  0  0  0  0  0  0  0  0  0
    1.9961   -0.5630   -1.1944 C   0  0  1  0  0  0  0  0  0  0  0  0
    1.0945   -0.0526   -0.0485 C   0  0  0  0  0  0  0  0  0  0  0  0
   -0.3424   -0.3498   -0.2358 N   0  0  0  0  0  0  0  0  0  0  0  0
   -1.0745   -0.1320    1.0349 C   0  0  0  0  0  0  0  0  0  0  0  0
   -2.5833   -0.3683    0.8650 C   0  0  0  0  0  0  0  0  0  0  0  0
   -3.1289    0.4911   -0.1443 O   0  0  0  0  0  0  0  0  0  0  0  0
   -2.4680    0.2582   -1.3939 C   0  0  0  0  0  0  0  0  0  0  0  0
   -0.9544    0.5058   -1.2784 C   0  0  0  0  0  0  0  0  0  0  0  0
    7.1697    2.2443    1.3011 C   0  0  0  0  0  0  0  0  0  0  0  0
    8.1957    2.2951    2.2361 C   0  0  0  0  0  0  0  0  0  0  0  0
    9.5186    2.1578    1.8183 C   0  0  0  0  0  0  0  0  0  0  0  0
    9.8389    1.9722    0.4624 C   0  0  0  0  0  0  0  0  0  0  0  0
   11.1802    1.8432    0.0652 C   0  0  0  0  0  0  0  0  0  0  0  0
   12.5619    1.5678   -1.5654 H   0  0  0  0  0  0  0  0  0  0  0  0
   10.7755    1.4606   -3.2846 H   0  0  0  0  0  0  0  0  0  0  0  0
    8.4235    1.6833   -2.6427 H   0  0  0  0  0  0  0  0  0  0  0  0
    3.5709    2.1905   -3.0621 H   0  0  0  0  0  0  0  0  0  0  0  0
    3.6375    3.1559   -1.5650 H   0  0  0  0  0  0  0  0  0  0  0  0
    2.2321    2.1438   -1.8978 H   0  0  0  0  0  0  0  0  0  0  0  0
    4.7417   -3.9949    1.0050 H   0  0  0  0  0  0  0  0  0  0  0  0
    6.9985   -3.0007    1.2828 H   0  0  0  0  0  0  0  0  0  0  0  0
    7.4999   -0.7274    0.4664 H   0  0  0  0  0  0  0  0  0  0  0  0
    0.9851   -2.5071   -1.3088 H   0  0  0  0  0  0  0  0  0  0  0  0
    2.4943   -2.4427   -2.2044 H   0  0  0  0  0  0  0  0  0  0  0  0
    1.6756   -0.1609   -2.1613 H   0  0  0  0  0  0  0  0  0  0  0  0
    1.4355   -0.5241    0.8834 H   0  0  0  0  0  0  0  0  0  0  0  0
    1.2375    1.0264    0.0972 H   0  0  0  0  0  0  0  0  0  0  0  0
   -0.9129    0.8959    1.3859 H   0  0  0  0  0  0  0  0  0  0  0  0
   -0.6988   -0.8173    1.8037 H   0  0  0  0  0  0  0  0  0  0  0  0
   -3.1016   -0.1462    1.8035 H   0  0  0  0  0  0  0  0  0  0  0  0
   -2.7963   -1.4123    0.6063 H   0  0  0  0  0  0  0  0  0  0  0  0
   -2.6785   -0.7638   -1.7304 H   0  0  0  0  0  0  0  0  0  0  0  0
   -2.8997    0.9453   -2.1287 H   0  0  0  0  0  0  0  0  0  0  0  0
   -0.5013    0.3033   -2.2541 H   0  0  0  0  0  0  0  0  0  0  0  0
   -0.7867    1.5638   -1.0391 H   0  0  0  0  0  0  0  0  0  0  0  0
    6.1404    2.3656    1.6296 H   0  0  0  0  0  0  0  0  0  0  0  0
    7.9697    2.4470    3.2882 H   0  0  0  0  0  0  0  0  0  0  0  0
   10.3086    2.2047    2.5666 H   0  0  0  0  0  0  0  0  0  0  0  0
   11.9796    1.8892    0.8021 H   0  0  0  0  0  0  0  0  0  0  0  0
 33  1  1  0
  1  2  2  0
  2 34  1  0
  2  3  1  0
  3 35  1  0
  3  4  2  0
  4  5  1  0
  5  6  1  0
  6  7  2  0
  6  8  1  0
  8  9  2  0
  9 10  1  0
 10 36  1  0
 10 37  1  0
 10 38  1  0
  9 11  1  0
 11 12  1  0
 12 13  1  0
 13 14  2  0
 14 39  1  0
 14 15  1  0
 15 40  1  0
 15 16  2  0
 16 41  1  0
  8 17  1  0
 12 17  2  0
 16 17  1  0
 13 18  1  0
 18 19  1  0
 19 42  1  0
 19 43  1  0
 11 20  1  0
 19 20  1  0
 20 44  1  6
 20 21  1  0
 21 45  1  0
 21 46  1  0
 21 22  1  0
 22 23  1  0
 23 47  1  0
 23 48  1  0
 23 24  1  0
 24 49  1  0
 24 50  1  0
 24 25  1  0
 25 26  1  0
 26 51  1  0
 26 52  1  0
 22 27  1  0
 26 27  1  0
 27 53  1  0
 27 54  1  0
  5 28  2  0
 28 55  1  0
 28 29  1  0
 29 56  1  0
 29 30  2  0
 30 57  1  0
  4 31  1  0
 30 31  1  0
  1 32  1  0
 31 32  2  0
 32 58  1  0
M  END
>  <conformer_energy>  (1) 
174.84

>  <ligand_smiles>  (1) 
Cc1c(C(=O)c2cccc3ccccc23)c2cccc3c2n1[C@H](CN1CCOCC1)CO3

>  <ligand_conf_name>  (1) 
MOL_0_isomer_0_conf_0

>  <ligand_molecule_name>  (1) 
MOL_0_isomer_0

$$$$
