MOL_0_isomer_0_chiral_N_isomer_0_conf_0
     RDKit          3D

 82 85  0  0  0  0  0  0  0  0999 V2000
    7.4957   -5.0757   -0.3575 C   0  0  0  0  0  0  0  0  0  0  0  0
    7.7486   -4.8019   -1.7039 C   0  0  0  0  0  0  0  0  0  0  0  0
    6.6874   -4.5965   -2.5963 C   0  0  0  0  0  0  0  0  0  0  0  0
    6.9543   -4.1961   -4.0294 C   0  0  0  0  0  0  0  0  0  0  0  0
    7.4104   -2.8207   -4.0741 N   0  0  0  0  0  0  0  0  0  0  0  0
    6.5346   -1.7739   -3.9566 C   0  0  0  0  0  0  0  0  0  0  0  0
    5.3096   -1.8897   -3.9539 O   0  0  0  0  0  0  0  0  0  0  0  0
    7.1717   -0.4416   -3.6820 C   0  0  0  0  0  0  0  0  0  0  0  0
    7.2112   -0.2544   -2.1625 C   0  0  1  0  0  0  0  0  0  0  0  0
    8.0842    0.9729   -1.8676 C   0  0  0  0  0  0  0  0  0  0  0  0
    7.7340    2.0895   -2.2846 O   0  0  0  0  0  0  0  0  0  0  0  0
    9.2461    0.7731   -1.1518 N   0  0  0  0  0  0  0  0  0  0  0  0
    9.7139   -0.4671   -0.5372 C   0  0  0  0  0  0  0  0  0  0  0  0
   11.0843   -0.1372    0.0414 C   0  0  0  0  0  0  0  0  0  0  0  0
   11.0120    1.3643    0.3005 C   0  0  0  0  0  0  0  0  0  0  0  0
   10.1692    1.8707   -0.8636 C   0  0  1  0  0  0  0  0  0  0  0  0
   11.0444    2.1622   -2.1029 C   0  0  0  0  0  0  0  0  0  0  0  0
   11.2804    1.3224   -2.9682 O   0  0  0  0  0  0  0  0  0  0  0  0
   11.5140    3.4642   -2.1583 N   0  0  0  0  0  0  0  0  0  0  0  0
   11.8608    4.0657   -3.4350 C   0  0  0  0  0  0  0  0  0  0  0  0
   10.5457    4.4202   -4.0993 C   0  0  0  0  0  0  0  0  0  0  0  0
    9.8182    5.5305   -3.6488 C   0  0  0  0  0  0  0  0  0  0  0  0
    8.4460    5.5971   -3.8783 C   0  0  0  0  0  0  0  0  0  0  0  0
    7.8008    4.5455   -4.5418 C   0  0  0  0  0  0  0  0  0  0  0  0
    6.3467    4.4167   -4.4721 C   0  0  0  0  0  0  0  0  0  0  0  0
    5.8497    3.5761   -3.5864 N   0  0  0  0  0  0  0  0  0  0  0  0
    5.5991    5.1449   -5.2754 N   0  0  0  0  0  4  0  0  0  0  0  0
    8.5506    3.5244   -5.1331 C   0  0  0  0  0  0  0  0  0  0  0  0
    9.9226    3.4678   -4.9210 C   0  0  0  0  0  0  0  0  0  0  0  0
    5.8184   -0.0340   -1.6431 N   0  0  0  0  0  0  0  0  0  0  0  0
    5.7414    0.0864    0.0522 S   0  0  0  0  0  6  0  0  0  0  0  0
    6.4049   -1.0773    0.5911 O   0  0  0  0  0  0  0  0  0  0  0  0
    6.1461    1.4329    0.3930 O   0  0  0  0  0  0  0  0  0  0  0  0
    4.0093   -0.0890    0.3646 C   0  0  0  0  0  0  0  0  0  0  0  0
    3.2755    0.9952    0.8549 C   0  0  0  0  0  0  0  0  0  0  0  0
    1.9149    0.8375    1.1232 C   0  0  0  0  0  0  0  0  0  0  0  0
    1.3045   -0.4030    0.9140 C   0  0  0  0  0  0  0  0  0  0  0  0
   -0.0428   -0.5134    1.1417 O   0  0  0  0  0  0  0  0  0  0  0  0
   -0.2927   -0.8174    2.5153 C   0  0  0  0  0  0  0  0  0  0  0  0
    2.0433   -1.4818    0.4129 C   0  0  0  0  0  0  0  0  0  0  0  0
    1.3145   -3.0162    0.1093 Cl  0  0  0  0  0  0  0  0  0  0  0  0
    3.4041   -1.3320    0.1510 C   0  0  0  0  0  0  0  0  0  0  0  0
    5.3697   -4.6901   -2.1220 C   0  0  0  0  0  0  0  0  0  0  0  0
    5.1167   -4.9726   -0.7779 C   0  0  0  0  0  0  0  0  0  0  0  0
    6.1800   -5.1526    0.1107 C   0  0  0  0  0  0  0  0  0  0  0  0
    5.9292   -5.3926    1.5036 C   0  0  0  0  0  0  0  0  0  0  0  0
    5.7435   -5.5630    2.6354 N   0  0  0  0  0  0  0  0  0  0  0  0
    8.3318   -5.2192    0.3253 H   0  0  0  0  0  0  0  0  0  0  0  0
    8.7791   -4.7327   -2.0451 H   0  0  0  0  0  0  0  0  0  0  0  0
    7.7401   -4.8291   -4.4581 H   0  0  0  0  0  0  0  0  0  0  0  0
    6.0544   -4.3055   -4.6464 H   0  0  0  0  0  0  0  0  0  0  0  0
    8.4073   -2.6598   -4.1174 H   0  0  0  0  0  0  0  0  0  0  0  0
    6.5787    0.3380   -4.1750 H   0  0  0  0  0  0  0  0  0  0  0  0
    8.1783   -0.4099   -4.1147 H   0  0  0  0  0  0  0  0  0  0  0  0
    7.6045   -1.1676   -1.7073 H   0  0  0  0  0  0  0  0  0  0  0  0
    9.7681   -1.2722   -1.2762 H   0  0  0  0  0  0  0  0  0  0  0  0
    9.0078   -0.7463    0.2506 H   0  0  0  0  0  0  0  0  0  0  0  0
   11.8675   -0.3507   -0.6968 H   0  0  0  0  0  0  0  0  0  0  0  0
   11.3035   -0.7156    0.9423 H   0  0  0  0  0  0  0  0  0  0  0  0
   10.4882    1.5497    1.2449 H   0  0  0  0  0  0  0  0  0  0  0  0
   12.0052    1.8178    0.3623 H   0  0  0  0  0  0  0  0  0  0  0  0
    9.6061    2.7747   -0.6037 H   0  0  0  0  0  0  0  0  0  0  0  0
   11.3537    4.0851   -1.3741 H   0  0  0  0  0  0  0  0  0  0  0  0
   12.4501    3.3706   -4.0415 H   0  0  0  0  0  0  0  0  0  0  0  0
   12.4602    4.9620   -3.2509 H   0  0  0  0  0  0  0  0  0  0  0  0
   10.2935    6.2796   -3.0215 H   0  0  0  0  0  0  0  0  0  0  0  0
    7.8706    6.4030   -3.4265 H   0  0  0  0  0  0  0  0  0  0  0  0
    6.5063    3.0525   -2.9857 H   0  0  0  0  0  0  0  0  0  0  0  0
    4.8647    3.4213   -3.4412 H   0  0  0  0  0  0  0  0  0  0  0  0
    6.0519    5.7783   -5.9278 H   0  0  0  0  0  0  0  0  0  0  0  0
    4.5906    5.0939   -5.2706 H   0  0  0  0  0  0  0  0  0  0  0  0
    8.0674    2.7023   -5.6537 H   0  0  0  0  0  0  0  0  0  0  0  0
   10.4825    2.5984   -5.2672 H   0  0  0  0  0  0  0  0  0  0  0  0
    5.1641   -0.7423   -2.0005 H   0  0  0  0  0  0  0  0  0  0  0  0
    3.7494    1.9564    1.0390 H   0  0  0  0  0  0  0  0  0  0  0  0
    1.3296    1.6754    1.4912 H   0  0  0  0  0  0  0  0  0  0  0  0
   -1.3607   -1.0200    2.6282 H   0  0  0  0  0  0  0  0  0  0  0  0
   -0.0347    0.0330    3.1551 H   0  0  0  0  0  0  0  0  0  0  0  0
    0.2524   -1.7104    2.8354 H   0  0  0  0  0  0  0  0  0  0  0  0
    3.9839   -2.1769   -0.2054 H   0  0  0  0  0  0  0  0  0  0  0  0
    4.5302   -4.5192   -2.7948 H   0  0  0  0  0  0  0  0  0  0  0  0
    4.0878   -5.0417   -0.4306 H   0  0  0  0  0  0  0  0  0  0  0  0
 48  1  1  0
  1  2  2  0
  2 49  1  0
  2  3  1  0
  3  4  1  0
  4 50  1  0
  4 51  1  0
  4  5  1  0
  5 52  1  0
  5  6  1  0
  6  7  2  0
  6  8  1  0
  8 53  1  0
  8 54  1  0
  8  9  1  0
  9 55  1  1
  9 10  1  0
 10 11  2  0
 10 12  1  0
 12 13  1  0
 13 56  1  0
 13 57  1  0
 13 14  1  0
 14 58  1  0
 14 59  1  0
 14 15  1  0
 15 60  1  0
 15 61  1  0
 12 16  1  0
 15 16  1  0
 16 62  1  1
 16 17  1  0
 17 18  2  0
 17 19  1  0
 19 63  1  0
 19 20  1  0
 20 64  1  0
 20 65  1  0
 20 21  1  0
 21 22  2  0
 22 66  1  0
 22 23  1  0
 23 67  1  0
 23 24  2  0
 24 25  1  0
 25 26  1  0
 26 68  1  0
 26 69  1  0
 25 27  2  0
 27 70  1  0
 27 71  1  0
 24 28  1  0
 28 72  1  0
 21 29  1  0
 28 29  2  0
 29 73  1  0
  9 30  1  0
 30 74  1  6
 30 31  1  0
 31 32  2  0
 31 33  2  0
 31 34  1  0
 34 35  2  0
 35 75  1  0
 35 36  1  0
 36 76  1  0
 36 37  2  0
 37 38  1  0
 38 39  1  0
 39 77  1  0
 39 78  1  0
 39 79  1  0
 37 40  1  0
 40 41  1  0
 34 42  1  0
 40 42  2  0
 42 80  1  0
  3 43  2  0
 43 81  1  0
 43 44  1  0
 44 82  1  0
  1 45  1  0
 44 45  2  0
 45 46  1  0
 46 47  3  0
M  CHG  1  27   1
M  END
>  <conformer_energy>  (1) 
-26.95

>  <ligand_smiles>  (1) 
COc1ccc(S(=O)(=O)N[C@@H](CC(=O)NCc2ccc(C#N)cc2)C(=O)N2CCC[C@H]2C(=O)NCc2ccc(C(N)=[NH2+])cc2)cc1Cl

>  <ligand_conf_name>  (1) 
MOL_0_isomer_0_chiral_N_isomer_0_conf_0

>  <ligand_molecule_name>  (1) 
MOL_0_isomer_0_chiral_N_isomer_0

$$$$
MOL_0_isomer_0_chiral_N_isomer_1_conf_0
     RDKit          3D

 82 85  0  0  0  0  0  0  0  0999 V2000
    7.6101    5.1317   -0.1634 C   0  0  0  0  0  0  0  0  0  0  0  0
    7.9158    4.8218    1.1652 C   0  0  0  0  0  0  0  0  0  0  0  0
    6.8922    4.6226    2.1025 C   0  0  0  0  0  0  0  0  0  0  0  0
    7.2132    4.2096    3.5177 C   0  0  0  0  0  0  0  0  0  0  0  0
    7.5134    2.7956    3.5643 N   0  0  0  0  0  0  0  0  0  0  0  0
    6.5135    1.8524    3.6319 C   0  0  0  0  0  0  0  0  0  0  0  0
    5.3291    2.1181    3.8020 O   0  0  0  0  0  0  0  0  0  0  0  0
    6.9822    0.4395    3.3991 C   0  0  0  0  0  0  0  0  0  0  0  0
    6.9676    0.1500    1.8972 C   0  0  1  0  0  0  0  0  0  0  0  0
    8.0440   -0.9067    1.6218 C   0  0  0  0  0  0  0  0  0  0  0  0
    7.8211   -2.0918    1.9026 O   0  0  0  0  0  0  0  0  0  0  0  0
    9.2477   -0.4942    1.1058 N   0  0  0  0  0  0  0  0  0  0  0  0
    9.6185    0.8394    0.6606 C   0  0  0  0  0  0  0  0  0  0  0  0
   11.1167    0.7587    0.4087 C   0  0  0  0  0  0  0  0  0  0  0  0
   11.3260   -0.6955   -0.0069 C   0  0  0  0  0  0  0  0  0  0  0  0
   10.3127   -1.4577    0.8435 C   0  0  1  0  0  0  0  0  0  0  0  0
   10.9291   -1.9216    2.1779 C   0  0  0  0  0  0  0  0  0  0  0  0
   11.1203   -1.1630    3.1259 O   0  0  0  0  0  0  0  0  0  0  0  0
   11.2285   -3.2679    2.2174 N   0  0  0  0  0  0  0  0  0  0  0  0
   11.6101   -3.9265    3.4449 C   0  0  0  0  0  0  0  0  0  0  0  0
   10.3713   -4.4299    4.1470 C   0  0  0  0  0  0  0  0  0  0  0  0
    9.8559   -5.7002    3.8649 C   0  0  0  0  0  0  0  0  0  0  0  0
    8.6414   -6.1067    4.4201 C   0  0  0  0  0  0  0  0  0  0  0  0
    7.9237   -5.2519    5.2685 C   0  0  0  0  0  0  0  0  0  0  0  0
    6.6197   -5.6544    5.7990 C   0  0  0  0  0  0  0  0  0  0  0  0
    5.6189   -5.8311    4.9597 N   0  0  0  0  0  0  0  0  0  0  0  0
    6.4821   -5.8271    7.0959 N   0  0  0  0  0  4  0  0  0  0  0  0
    8.4504   -3.9887    5.5719 C   0  0  0  0  0  0  0  0  0  0  0  0
    9.6611   -3.5829    5.0113 C   0  0  0  0  0  0  0  0  0  0  0  0
    5.6460   -0.4453    1.4963 N   0  0  0  0  0  0  0  0  0  0  0  0
    5.4188   -0.5918   -0.1801 S   0  0  0  0  0  6  0  0  0  0  0  0
    6.4590    0.1419   -0.8656 O   0  0  0  0  0  0  0  0  0  0  0  0
    5.1927   -2.0050   -0.3927 O   0  0  0  0  0  0  0  0  0  0  0  0
    3.8823    0.2477   -0.4504 C   0  0  0  0  0  0  0  0  0  0  0  0
    3.0181   -0.2420   -1.4356 C   0  0  0  0  0  0  0  0  0  0  0  0
    1.7934    0.3869   -1.6515 C   0  0  0  0  0  0  0  0  0  0  0  0
    1.4264    1.4846   -0.8644 C   0  0  0  0  0  0  0  0  0  0  0  0
    0.2265    2.0868   -1.1416 O   0  0  0  0  0  0  0  0  0  0  0  0
   -0.8096    1.5483   -0.3172 C   0  0  0  0  0  0  0  0  0  0  0  0
    2.2999    1.9792    0.1131 C   0  0  0  0  0  0  0  0  0  0  0  0
    1.8884    3.3505    1.0753 Cl  0  0  0  0  0  0  0  0  0  0  0  0
    3.5316    1.3575    0.3282 C   0  0  0  0  0  0  0  0  0  0  0  0
    5.5577    4.7492    1.6883 C   0  0  0  0  0  0  0  0  0  0  0  0
    5.2503    5.0694    0.3636 C   0  0  0  0  0  0  0  0  0  0  0  0
    6.2756    5.2513   -0.5682 C   0  0  0  0  0  0  0  0  0  0  0  0
    5.9653    5.5515   -1.9350 C   0  0  0  0  0  0  0  0  0  0  0  0
    5.7278    5.7818   -3.0463 N   0  0  0  0  0  0  0  0  0  0  0  0
    8.4193    5.2757   -0.8810 H   0  0  0  0  0  0  0  0  0  0  0  0
    8.9618    4.7306    1.4601 H   0  0  0  0  0  0  0  0  0  0  0  0
    8.0918    4.7552    3.8768 H   0  0  0  0  0  0  0  0  0  0  0  0
    6.3819    4.4380    4.1923 H   0  0  0  0  0  0  0  0  0  0  0  0
    8.4828    2.5184    3.4883 H   0  0  0  0  0  0  0  0  0  0  0  0
    6.3377   -0.2466    3.9633 H   0  0  0  0  0  0  0  0  0  0  0  0
    7.9922    0.3402    3.8149 H   0  0  0  0  0  0  0  0  0  0  0  0
    7.1335    1.0692    1.3285 H   0  0  0  0  0  0  0  0  0  0  0  0
    9.3615    1.5935    1.4113 H   0  0  0  0  0  0  0  0  0  0  0  0
    9.0690    1.0557   -0.2616 H   0  0  0  0  0  0  0  0  0  0  0  0
   11.6703    0.9612    1.3301 H   0  0  0  0  0  0  0  0  0  0  0  0
   11.4499    1.4683   -0.3502 H   0  0  0  0  0  0  0  0  0  0  0  0
   11.0811   -0.8121   -1.0705 H   0  0  0  0  0  0  0  0  0  0  0  0
   12.3597   -1.0253    0.1451 H   0  0  0  0  0  0  0  0  0  0  0  0
    9.9048   -2.3201    0.3058 H   0  0  0  0  0  0  0  0  0  0  0  0
   11.0100   -3.8502    1.4166 H   0  0  0  0  0  0  0  0  0  0  0  0
   12.1703   -3.2409    4.0911 H   0  0  0  0  0  0  0  0  0  0  0  0
   12.2748   -4.7578    3.1863 H   0  0  0  0  0  0  0  0  0  0  0  0
   10.3898   -6.3677    3.1929 H   0  0  0  0  0  0  0  0  0  0  0  0
    8.2604   -7.0941    4.1725 H   0  0  0  0  0  0  0  0  0  0  0  0
    5.7625   -5.6471    3.9749 H   0  0  0  0  0  0  0  0  0  0  0  0
    4.6925   -6.1086    5.2522 H   0  0  0  0  0  0  0  0  0  0  0  0
    7.2839   -5.6906    7.7093 H   0  0  0  0  0  0  0  0  0  0  0  0
    5.6052   -6.1002    7.5183 H   0  0  0  0  0  0  0  0  0  0  0  0
    7.9095   -3.2878    6.2087 H   0  0  0  0  0  0  0  0  0  0  0  0
   10.0396   -2.5802    5.2114 H   0  0  0  0  0  0  0  0  0  0  0  0
    5.5478   -1.3898    1.8838 H   0  0  0  0  0  0  0  0  0  0  0  0
    3.2985   -1.1044   -2.0434 H   0  0  0  0  0  0  0  0  0  0  0  0
    1.1210    0.0282   -2.4288 H   0  0  0  0  0  0  0  0  0  0  0  0
   -1.7521    2.0182   -0.6120 H   0  0  0  0  0  0  0  0  0  0  0  0
   -0.6364    1.7640    0.7423 H   0  0  0  0  0  0  0  0  0  0  0  0
   -0.9195    0.4685   -0.4672 H   0  0  0  0  0  0  0  0  0  0  0  0
    4.2048    1.7375    1.0927 H   0  0  0  0  0  0  0  0  0  0  0  0
    4.7447    4.5859    2.3974 H   0  0  0  0  0  0  0  0  0  0  0  0
    4.2058    5.1707    0.0654 H   0  0  0  0  0  0  0  0  0  0  0  0
 48  1  1  0
  1  2  2  0
  2 49  1  0
  2  3  1  0
  3  4  1  0
  4 50  1  0
  4 51  1  0
  4  5  1  0
  5 52  1  0
  5  6  1  0
  6  7  2  0
  6  8  1  0
  8 53  1  0
  8 54  1  0
  8  9  1  0
  9 55  1  6
  9 10  1  0
 10 11  2  0
 10 12  1  0
 12 13  1  0
 13 56  1  0
 13 57  1  0
 13 14  1  0
 14 58  1  0
 14 59  1  0
 14 15  1  0
 15 60  1  0
 15 61  1  0
 12 16  1  0
 15 16  1  0
 16 62  1  6
 16 17  1  0
 17 18  2  0
 17 19  1  0
 19 63  1  0
 19 20  1  0
 20 64  1  0
 20 65  1  0
 20 21  1  0
 21 22  2  0
 22 66  1  0
 22 23  1  0
 23 67  1  0
 23 24  2  0
 24 25  1  0
 25 26  1  0
 26 68  1  0
 26 69  1  0
 25 27  2  0
 27 70  1  0
 27 71  1  0
 24 28  1  0
 28 72  1  0
 21 29  1  0
 28 29  2  0
 29 73  1  0
  9 30  1  0
 30 74  1  6
 30 31  1  0
 31 32  2  0
 31 33  2  0
 31 34  1  0
 34 35  2  0
 35 75  1  0
 35 36  1  0
 36 76  1  0
 36 37  2  0
 37 38  1  0
 38 39  1  0
 39 77  1  0
 39 78  1  0
 39 79  1  0
 37 40  1  0
 40 41  1  0
 34 42  1  0
 40 42  2  0
 42 80  1  0
  3 43  2  0
 43 81  1  0
 43 44  1  0
 44 82  1  0
  1 45  1  0
 44 45  2  0
 45 46  1  0
 46 47  3  0
M  CHG  1  27   1
M  END
>  <conformer_energy>  (2) 
-24.30

>  <ligand_smiles>  (2) 
COc1ccc(S(=O)(=O)N[C@@H](CC(=O)NCc2ccc(C#N)cc2)C(=O)N2CCC[C@H]2C(=O)NCc2ccc(C(N)=[NH2+])cc2)cc1Cl

>  <ligand_conf_name>  (2) 
MOL_0_isomer_0_chiral_N_isomer_1_conf_0

>  <ligand_molecule_name>  (2) 
MOL_0_isomer_0_chiral_N_isomer_1

$$$$
