MOL_0_isomer_0_conf_0
     RDKit          3D

 66 70  0  0  0  0  0  0  0  0999 V2000
    9.4544   -0.8020    6.0376 C   0  0  0  0  0  0  0  0  0  0  0  0
    8.4799   -0.0383    5.3977 C   0  0  0  0  0  0  0  0  0  0  0  0
    8.8254    0.7754    4.3177 C   0  0  0  0  0  0  0  0  0  0  0  0
   10.1521    0.8292    3.8619 C   0  0  0  0  0  0  0  0  0  0  0  0
   10.5334    1.7149    2.6870 C   0  0  1  0  0  0  0  0  0  0  0  0
   11.4682    2.7041    3.1356 O   0  0  0  0  0  0  0  0  0  0  0  0
   10.8478    3.8556    3.6871 C   0  0  0  0  0  0  0  0  0  0  0  0
   11.1587    0.8765    1.5323 C   0  0  0  0  0  0  0  0  0  0  0  0
   12.3806    0.7683    1.3841 O   0  0  0  0  0  0  0  0  0  0  0  0
   10.2988    0.2567    0.6449 N   0  0  0  0  0  0  0  0  0  0  0  0
    8.8037    0.2709    0.7017 C   0  0  0  0  0  0  0  0  0  0  0  0
    8.4860   -0.5220   -0.4878 C   0  0  0  0  0  0  0  0  0  0  0  0
    7.4355   -1.0254   -1.2515 C   0  0  0  0  0  0  0  0  0  0  0  0
    6.0764   -0.9110   -1.1074 N   0  0  0  0  0  0  0  0  0  0  0  0
    5.4281   -0.2367   -0.1028 C   0  0  0  0  0  0  0  0  0  0  0  0
    5.9499    0.3345    0.8487 O   0  0  0  0  0  0  0  0  0  0  0  0
    3.9410   -0.2430   -0.1952 C   0  0  0  0  0  0  0  0  0  0  0  0
    3.2689   -0.2256   -1.4185 C   0  0  0  0  0  0  0  0  0  0  0  0
    1.8673   -0.2230   -1.4471 C   0  0  0  0  0  0  0  0  0  0  0  0
    1.0996   -0.2276   -0.2702 C   0  0  0  0  0  0  0  0  0  0  0  0
   -0.2944   -0.2272   -0.3345 N   0  0  0  0  0  0  0  0  0  0  0  0
   -1.0649   -0.7685    0.7970 C   0  0  0  0  0  0  0  0  0  0  0  0
   -2.4967   -1.1462    0.3682 C   0  0  0  0  0  0  0  0  0  0  0  0
   -3.1766    0.0295   -0.3259 N   0  0  0  0  0  4  0  0  0  0  0  0
   -4.6006   -0.2713   -0.6807 C   0  0  0  0  0  0  0  0  0  0  0  0
   -2.3616    0.4664   -1.5383 C   0  0  0  0  0  0  0  0  0  0  0  0
   -0.9262    0.8472   -1.1232 C   0  0  0  0  0  0  0  0  0  0  0  0
    1.7986   -0.2415    0.9459 C   0  0  0  0  0  0  0  0  0  0  0  0
    3.1989   -0.2395    0.9873 C   0  0  0  0  0  0  0  0  0  0  0  0
    7.9052   -1.7325   -2.2967 N   0  0  0  0  0  0  0  0  0  0  0  0
    9.2573   -1.6728   -2.1790 N   0  0  0  0  0  0  0  0  0  0  0  0
    9.6197   -0.9496   -1.1060 C   0  0  0  0  0  0  0  0  0  0  0  0
   10.8657   -0.5364   -0.4730 C   0  0  0  0  0  0  0  0  0  0  0  0
   11.1250    0.0647    4.5248 C   0  0  0  0  0  0  0  0  0  0  0  0
   10.7768   -0.7481    5.6033 C   0  0  0  0  0  0  0  0  0  0  0  0
    9.1864   -1.4342    6.8799 H   0  0  0  0  0  0  0  0  0  0  0  0
    7.4503   -0.0761    5.7425 H   0  0  0  0  0  0  0  0  0  0  0  0
    8.0492    1.3652    3.8348 H   0  0  0  0  0  0  0  0  0  0  0  0
    9.6539    2.2278    2.2822 H   0  0  0  0  0  0  0  0  0  0  0  0
   11.6333    4.5385    4.0243 H   0  0  0  0  0  0  0  0  0  0  0  0
   10.2246    3.5943    4.5480 H   0  0  0  0  0  0  0  0  0  0  0  0
   10.2478    4.3674    2.9279 H   0  0  0  0  0  0  0  0  0  0  0  0
    8.4817   -0.2068    1.6282 H   0  0  0  0  0  0  0  0  0  0  0  0
    8.4541    1.3036    0.6371 H   0  0  0  0  0  0  0  0  0  0  0  0
    5.5750   -1.4197   -1.8203 H   0  0  0  0  0  0  0  0  0  0  0  0
    3.8109   -0.1925   -2.3601 H   0  0  0  0  0  0  0  0  0  0  0  0
    1.3825   -0.2415   -2.4202 H   0  0  0  0  0  0  0  0  0  0  0  0
   -1.1114   -0.0244    1.6010 H   0  0  0  0  0  0  0  0  0  0  0  0
   -0.5895   -1.6734    1.1942 H   0  0  0  0  0  0  0  0  0  0  0  0
   -3.1054   -1.4063    1.2404 H   0  0  0  0  0  0  0  0  0  0  0  0
   -2.4921   -1.9804   -0.3431 H   0  0  0  0  0  0  0  0  0  0  0  0
   -3.1779    0.8153    0.3377 H   0  0  0  0  0  0  0  0  0  0  0  0
   -4.6188   -1.1131   -1.3776 H   0  0  0  0  0  0  0  0  0  0  0  0
   -5.1345   -0.5154    0.2411 H   0  0  0  0  0  0  0  0  0  0  0  0
   -5.0322    0.6238   -1.1360 H   0  0  0  0  0  0  0  0  0  0  0  0
   -2.8741    1.3257   -1.9824 H   0  0  0  0  0  0  0  0  0  0  0  0
   -2.3630   -0.3716   -2.2441 H   0  0  0  0  0  0  0  0  0  0  0  0
   -0.3684    1.0807   -2.0367 H   0  0  0  0  0  0  0  0  0  0  0  0
   -0.9521    1.7621   -0.5173 H   0  0  0  0  0  0  0  0  0  0  0  0
    1.2755   -0.2274    1.8977 H   0  0  0  0  0  0  0  0  0  0  0  0
    3.7080   -0.2359    1.9499 H   0  0  0  0  0  0  0  0  0  0  0  0
    9.8320   -2.1495   -2.8678 H   0  0  0  0  0  0  0  0  0  0  0  0
   11.4484   -1.3671   -0.0666 H   0  0  0  0  0  0  0  0  0  0  0  0
   11.4869    0.1096   -1.0989 H   0  0  0  0  0  0  0  0  0  0  0  0
   12.1652    0.1078    4.2018 H   0  0  0  0  0  0  0  0  0  0  0  0
   11.5404   -1.3374    6.1057 H   0  0  0  0  0  0  0  0  0  0  0  0
 36  1  1  0
  1  2  2  0
  2 37  1  0
  2  3  1  0
  3 38  1  0
  3  4  2  0
  4  5  1  0
  5 39  1  6
  5  6  1  0
  6  7  1  0
  7 40  1  0
  7 41  1  0
  7 42  1  0
  5  8  1  0
  8  9  2  0
  8 10  1  0
 10 11  1  0
 11 43  1  0
 11 44  1  0
 11 12  1  0
 12 13  1  0
 13 14  1  0
 14 45  1  0
 14 15  1  0
 15 16  2  0
 15 17  1  0
 17 18  2  0
 18 46  1  0
 18 19  1  0
 19 47  1  0
 19 20  2  0
 20 21  1  0
 21 22  1  0
 22 48  1  0
 22 49  1  0
 22 23  1  0
 23 50  1  0
 23 51  1  0
 23 24  1  0
 24 52  1  0
 24 25  1  0
 25 53  1  0
 25 54  1  0
 25 55  1  0
 24 26  1  0
 26 56  1  0
 26 57  1  0
 21 27  1  0
 26 27  1  0
 27 58  1  0
 27 59  1  0
 20 28  1  0
 28 60  1  0
 17 29  1  0
 28 29  2  0
 29 61  1  0
 13 30  2  0
 30 31  1  0
 31 62  1  0
 12 32  2  0
 31 32  1  0
 10 33  1  0
 32 33  1  0
 33 63  1  0
 33 64  1  0
  4 34  1  0
 34 65  1  0
  1 35  1  0
 34 35  2  0
 35 66  1  0
M  CHG  1  24   1
M  END
>  <conformer_energy>  (1) 
154.29

>  <ligand_smiles>  (1) 
CO[C@@H](C(=O)N1Cc2[nH]nc(NC(=O)c3ccc(N4CC[NH+](C)CC4)cc3)c2C1)c1ccccc1

>  <ligand_conf_name>  (1) 
MOL_0_isomer_0_conf_0

>  <ligand_molecule_name>  (1) 
MOL_0_isomer_0

$$$$
