MOL_0_isomer_0_conf_0
     RDKit          3D

 18 18  0  0  0  0  0  0  0  0999 V2000
    4.2263   -0.0487    0.0427 C   0  0  0  0  0  0  0  0  0  0  0  0
    3.5130   -0.8117    0.9644 C   0  0  0  0  0  0  0  0  0  0  0  0
    2.1173   -0.7955    0.9540 C   0  0  0  0  0  0  0  0  0  0  0  0
    1.4215   -0.0150    0.0173 C   0  0  0  0  0  0  0  0  0  0  0  0
   -0.0463    0.0026    0.0040 C   0  0  0  0  0  0  0  0  0  0  0  0
   -0.6823   -0.2666   -1.1152 N   0  0  0  0  0  0  0  0  0  0  0  0
   -0.6958    0.2903    1.1109 N   0  0  0  0  0  4  0  0  0  0  0  0
    2.1527    0.7483   -0.9065 C   0  0  0  0  0  0  0  0  0  0  0  0
    3.5484    0.7310   -0.8917 C   0  0  0  0  0  0  0  0  0  0  0  0
    5.3150   -0.0618    0.0525 H   0  0  0  0  0  0  0  0  0  0  0  0
    4.0500   -1.4224    1.6883 H   0  0  0  0  0  0  0  0  0  0  0  0
    1.5852   -1.4135    1.6749 H   0  0  0  0  0  0  0  0  0  0  0  0
   -0.1537   -0.5136   -1.9466 H   0  0  0  0  0  0  0  0  0  0  0  0
   -1.6903   -0.2684   -1.1845 H   0  0  0  0  0  0  0  0  0  0  0  0
   -0.1765    0.5178    1.9536 H   0  0  0  0  0  0  0  0  0  0  0  0
   -1.7045    0.3197    1.1610 H   0  0  0  0  0  0  0  0  0  0  0  0
    1.6486    1.3788   -1.6368 H   0  0  0  0  0  0  0  0  0  0  0  0
    4.1129    1.3285   -1.6057 H   0  0  0  0  0  0  0  0  0  0  0  0
 10  1  1  0
  1  2  2  0
  2 11  1  0
  2  3  1  0
  3 12  1  0
  3  4  2  0
  4  5  1  0
  5  6  1  0
  6 13  1  0
  6 14  1  0
  5  7  2  0
  7 15  1  0
  7 16  1  0
  4  8  1  0
  8 17  1  0
  1  9  1  0
  8  9  2  0
  9 18  1  0
M  CHG  1   7   1
M  END
>  <conformer_energy>  (1) 
-4.88

>  <ligand_smiles>  (1) 
NC(=[NH2+])c1ccccc1

>  <ligand_conf_name>  (1) 
MOL_0_isomer_0_conf_0

>  <ligand_molecule_name>  (1) 
MOL_0_isomer_0

$$$$
