MOL_0_isomer_0_conf_0
     RDKit          3D

 62 66  0  0  0  0  0  0  0  0999 V2000
    2.9674   -1.5639    1.0033 C   0  0  0  0  0  0  0  0  0  0  0  0
    1.7052   -1.2719    1.3261 N   0  0  0  0  0  0  0  0  0  0  0  0
    1.2261   -0.6240    0.2293 N   0  0  0  0  0  0  0  0  0  0  0  0
   -0.1690   -0.1477    0.2257 C   0  0  0  0  0  0  0  0  0  0  0  0
   -0.3239    1.0072    1.2361 C   0  0  0  0  0  0  0  0  0  0  0  0
   -0.8551    2.0821    0.9675 O   0  0  0  0  0  0  0  0  0  0  0  0
    0.1140    0.7810    2.5095 N   0  0  0  0  0  0  0  0  0  0  0  0
   -1.1186   -1.2934    0.6268 C   0  0  0  0  0  0  0  0  0  0  0  0
   -0.6120    0.3534   -1.1677 C   0  0  0  0  0  0  0  0  0  0  0  0
    2.1725   -0.5092   -0.7561 C   0  0  0  0  0  0  0  0  0  0  0  0
    3.3134   -1.1231   -0.2880 C   0  0  0  0  0  0  0  0  0  0  0  0
    4.5555   -1.2288   -1.0208 C   0  0  0  0  0  0  0  0  0  0  0  0
    4.5697   -1.6802   -2.3382 C   0  0  0  0  0  0  0  0  0  0  0  0
    5.7844   -1.8207   -3.0168 C   0  0  0  0  0  0  0  0  0  0  0  0
    7.0194   -1.4987   -2.4159 C   0  0  0  0  0  0  0  0  0  0  0  0
    6.9833   -0.9970   -1.1061 C   0  0  0  0  0  0  0  0  0  0  0  0
    5.7667   -0.8971   -0.4099 C   0  0  0  0  0  0  0  0  0  0  0  0
    8.0617   -0.6032   -0.3596 O   0  0  0  0  0  0  0  0  0  0  0  0
    9.0237    0.1548   -1.0893 C   0  0  0  0  0  0  0  0  0  0  0  0
   10.0375   -0.7811   -1.7067 C   0  0  0  0  0  0  0  0  0  0  0  0
    9.5398   -1.4556   -2.8867 N   0  0  0  0  0  0  0  0  0  0  0  0
    8.2354   -1.7699   -3.2077 C   0  0  0  0  0  0  0  0  0  0  0  0
    8.2185   -2.3921   -4.3813 N   0  0  0  0  0  0  0  0  0  0  0  0
    9.5163   -2.4937   -4.7999 C   0  0  0  0  0  0  0  0  0  0  0  0
    9.9808   -3.1966   -6.1043 C   0  0  0  0  0  0  0  0  0  0  0  0
   11.2396   -3.2937   -6.4878 N   0  0  0  0  0  0  0  0  0  0  0  0
   11.1656   -4.0260   -7.6405 C   0  0  0  0  0  0  0  0  0  0  0  0
   12.3615   -4.3958   -8.4224 C   0  0  0  0  0  0  0  0  0  0  0  0
    9.9316   -4.3923   -8.0014 N   0  0  0  0  0  0  0  0  0  0  0  0
    9.1838   -3.8337   -7.0210 N   0  0  0  0  0  0  0  0  0  0  0  0
    7.7368   -3.9976   -7.0024 C   0  0  0  0  0  0  0  0  0  0  0  0
    7.1256   -4.0873   -8.4052 C   0  0  0  0  0  0  0  0  0  0  0  0
    7.3388   -5.2139   -6.1666 C   0  0  0  0  0  0  0  0  0  0  0  0
   10.3559   -1.9044   -3.8915 C   0  0  0  0  0  0  0  0  0  0  0  0
    3.5816   -2.0943    1.7183 H   0  0  0  0  0  0  0  0  0  0  0  0
    0.6646   -0.0495    2.7262 H   0  0  0  0  0  0  0  0  0  0  0  0
    0.0268    1.5136    3.1992 H   0  0  0  0  0  0  0  0  0  0  0  0
   -1.0440   -2.1292   -0.0777 H   0  0  0  0  0  0  0  0  0  0  0  0
   -2.1593   -0.9525    0.6390 H   0  0  0  0  0  0  0  0  0  0  0  0
   -0.9008   -1.6870    1.6269 H   0  0  0  0  0  0  0  0  0  0  0  0
   -0.4893   -0.4212   -1.9361 H   0  0  0  0  0  0  0  0  0  0  0  0
   -0.0355    1.2336   -1.4803 H   0  0  0  0  0  0  0  0  0  0  0  0
   -1.6672    0.6522   -1.1651 H   0  0  0  0  0  0  0  0  0  0  0  0
    1.9772    0.0020   -1.6880 H   0  0  0  0  0  0  0  0  0  0  0  0
    3.6472   -1.9578   -2.8424 H   0  0  0  0  0  0  0  0  0  0  0  0
    5.7633   -2.2071   -4.0359 H   0  0  0  0  0  0  0  0  0  0  0  0
    5.7787   -0.5292    0.6140 H   0  0  0  0  0  0  0  0  0  0  0  0
    8.5550    0.8303   -1.8178 H   0  0  0  0  0  0  0  0  0  0  0  0
    9.5320    0.7890   -0.3536 H   0  0  0  0  0  0  0  0  0  0  0  0
   10.9235   -0.2112   -2.0116 H   0  0  0  0  0  0  0  0  0  0  0  0
   10.3405   -1.5668   -1.0041 H   0  0  0  0  0  0  0  0  0  0  0  0
   13.2621   -3.9404   -7.9989 H   0  0  0  0  0  0  0  0  0  0  0  0
   12.2650   -4.0557   -9.4581 H   0  0  0  0  0  0  0  0  0  0  0  0
   12.4980   -5.4820   -8.4235 H   0  0  0  0  0  0  0  0  0  0  0  0
    7.3242   -3.0931   -6.5446 H   0  0  0  0  0  0  0  0  0  0  0  0
    6.0320   -4.1087   -8.3480 H   0  0  0  0  0  0  0  0  0  0  0  0
    7.4486   -4.9916   -8.9320 H   0  0  0  0  0  0  0  0  0  0  0  0
    7.4129   -3.2228   -9.0136 H   0  0  0  0  0  0  0  0  0  0  0  0
    6.2486   -5.2995   -6.0998 H   0  0  0  0  0  0  0  0  0  0  0  0
    7.7309   -5.1427   -5.1464 H   0  0  0  0  0  0  0  0  0  0  0  0
    7.7268   -6.1408   -6.6033 H   0  0  0  0  0  0  0  0  0  0  0  0
   11.4315   -1.7927   -3.8752 H   0  0  0  0  0  0  0  0  0  0  0  0
 35  1  1  0
  1  2  2  0
  2  3  1  0
  3  4  1  0
  4  5  1  0
  5  6  2  0
  5  7  1  0
  7 36  1  0
  7 37  1  0
  4  8  1  0
  8 38  1  0
  8 39  1  0
  8 40  1  0
  4  9  1  0
  9 41  1  0
  9 42  1  0
  9 43  1  0
  3 10  1  0
 10 44  1  0
  1 11  1  0
 10 11  2  0
 11 12  1  0
 12 13  2  0
 13 45  1  0
 13 14  1  0
 14 46  1  0
 14 15  2  0
 15 16  1  0
 12 17  1  0
 16 17  2  0
 17 47  1  0
 16 18  1  0
 18 19  1  0
 19 48  1  0
 19 49  1  0
 19 20  1  0
 20 50  1  0
 20 51  1  0
 20 21  1  0
 15 22  1  0
 21 22  1  0
 22 23  2  0
 23 24  1  0
 24 25  1  0
 25 26  2  0
 26 27  1  0
 27 28  1  0
 28 52  1  0
 28 53  1  0
 28 54  1  0
 27 29  2  0
 25 30  1  0
 29 30  1  0
 30 31  1  0
 31 55  1  0
 31 32  1  0
 32 56  1  0
 32 57  1  0
 32 58  1  0
 31 33  1  0
 33 59  1  0
 33 60  1  0
 33 61  1  0
 21 34  1  0
 24 34  2  0
 34 62  1  0
M  END
>  <conformer_energy>  (1) 
67.27

>  <ligand_smiles>  (1) 
Cc1nc(-c2cn3c(n2)-c2ccc(-c4cnn(C(C)(C)C(N)=O)c4)cc2OCC3)n(C(C)C)n1

>  <ligand_conf_name>  (1) 
MOL_0_isomer_0_conf_0

>  <ligand_molecule_name>  (1) 
MOL_0_isomer_0

$$$$
