MOL_0_isomer_0_conf_0
     RDKit          3D

 21 21  0  0  0  0  0  0  0  0999 V2000
    4.2819   -0.0274    0.0825 C   0  0  0  0  0  0  0  0  0  0  0  0
    3.4736   -1.1594    0.0100 C   0  0  0  0  0  0  0  0  0  0  0  0
    2.0873   -1.0255   -0.0727 C   0  0  0  0  0  0  0  0  0  0  0  0
    1.4974    0.2467   -0.0766 C   0  0  0  0  0  0  0  0  0  0  0  0
   -0.0038    0.3959   -0.1127 C   0  0  0  0  0  0  0  0  0  0  0  0
   -0.6692   -0.0771    1.1822 C   0  0  0  0  0  0  0  0  0  0  0  0
   -0.1012    0.6344    2.3596 N   0  0  0  0  0  4  0  0  0  0  0  0
    2.3213    1.3803   -0.0204 C   0  0  0  0  0  0  0  0  0  0  0  0
    3.7072    1.2412    0.0618 C   0  0  0  0  0  0  0  0  0  0  0  0
    5.3640   -0.1340    0.1313 H   0  0  0  0  0  0  0  0  0  0  0  0
    3.9299   -2.1476   -0.0004 H   0  0  0  0  0  0  0  0  0  0  0  0
    1.4833   -1.9277   -0.1537 H   0  0  0  0  0  0  0  0  0  0  0  0
   -0.2720    1.4435   -0.2987 H   0  0  0  0  0  0  0  0  0  0  0  0
   -0.3997   -0.1757   -0.9610 H   0  0  0  0  0  0  0  0  0  0  0  0
   -1.7432    0.1307    1.1726 H   0  0  0  0  0  0  0  0  0  0  0  0
   -0.5119   -1.1452    1.3609 H   0  0  0  0  0  0  0  0  0  0  0  0
    0.9128    0.4579    2.4343 H   0  0  0  0  0  0  0  0  0  0  0  0
   -0.5315    0.3189    3.2377 H   0  0  0  0  0  0  0  0  0  0  0  0
   -0.2261    1.6521    2.2921 H   0  0  0  0  0  0  0  0  0  0  0  0
    1.9030    2.3845   -0.0609 H   0  0  0  0  0  0  0  0  0  0  0  0
    4.3458    2.1222    0.0902 H   0  0  0  0  0  0  0  0  0  0  0  0
 10  1  1  0
  1  2  2  0
  2 11  1  0
  2  3  1  0
  3 12  1  0
  3  4  2  0
  4  5  1  0
  5 13  1  0
  5 14  1  0
  5  6  1  0
  6 15  1  0
  6 16  1  0
  6  7  1  0
  7 17  1  0
  7 18  1  0
  7 19  1  0
  4  8  1  0
  8 20  1  0
  1  9  1  0
  8  9  2  0
  9 21  1  0
M  CHG  1   7   1
M  END
>  <conformer_energy>  (1) 
26.11

>  <ligand_smiles>  (1) 
[NH3+]CCc1ccccc1

>  <ligand_conf_name>  (1) 
MOL_0_isomer_0_conf_0

>  <ligand_molecule_name>  (1) 
MOL_0_isomer_0

$$$$
