MOL_0_isomer_0_conf_0
     RDKit          3D

 43 44  0  0  0  0  0  0  0  0999 V2000
    3.0662    6.7621   -0.3749 C   0  0  0  0  0  0  0  0  0  0  0  0
    4.1852    7.5156   -0.4129 N   0  0  0  0  0  0  0  0  0  0  0  0
    4.8163    7.6426    0.7658 C   0  0  0  0  0  0  0  0  0  0  0  0
    6.0543    8.4801    0.7947 C   0  0  0  0  0  0  0  0  0  0  0  0
    4.4047    7.1248    1.9353 N   0  0  0  0  0  0  0  0  0  0  0  0
    3.2848    6.3680    1.9232 C   0  0  0  0  0  0  0  0  0  0  0  0
    2.8640    5.9133    3.1482 N   0  0  0  0  0  0  0  0  0  0  0  0
    2.5609    6.1590    0.7620 C   0  0  0  0  0  0  0  0  0  0  0  0
    1.2790    5.3811    0.7180 C   0  0  0  0  0  0  0  0  0  0  0  0
    1.1732    4.4752   -0.4524 N   0  0  0  0  0  0  0  0  0  0  0  0
    1.9417    3.2888   -0.5606 C   0  0  0  0  0  0  0  0  0  0  0  0
    3.2397    3.1385    0.1807 C   0  0  0  0  0  0  0  0  0  0  0  0
    1.3319    2.2841   -1.2289 C   0  0  0  0  0  0  0  0  0  0  0  0
    1.7082    0.8298   -1.2227 C   0  0  0  0  0  0  0  0  0  0  0  0
    1.5286    0.1856    0.1599 C   0  0  0  0  0  0  0  0  0  0  0  0
    0.1632    0.2005    0.5325 O   0  0  0  0  0  0  0  0  0  0  0  0
   -0.1559    0.2805    2.1509 P   0  0  2  0  0  5  0  0  0  0  0  0
    0.7106   -0.8372    2.7233 O   0  0  0  0  0  0  0  0  0  0  0  0
   -1.6680    0.1599    2.2107 O   0  0  0  0  0  1  0  0  0  0  0  0
    0.4443    1.7371    2.4252 O   0  0  0  0  0  0  0  0  0  0  0  0
    0.3214    2.9178    3.5137 P   0  0  0  0  0  5  0  0  0  0  0  0
   -0.7206    3.8917    2.9598 O   0  0  0  0  0  0  0  0  0  0  0  0
    1.7125    3.5771    3.5195 O   0  0  0  0  0  1  0  0  0  0  0  0
   -0.0249    2.3123    4.8634 O   0  0  0  0  0  1  0  0  0  0  0  0
   -0.1776    2.8024   -1.9623 S   0  0  0  0  0  0  0  0  0  0  0  0
   -0.2360    4.2319   -0.8156 C   0  0  0  0  0  0  0  0  0  0  0  0
    2.5573    6.6382   -1.3269 H   0  0  0  0  0  0  0  0  0  0  0  0
    6.5644    8.4497   -0.1731 H   0  0  0  0  0  0  0  0  0  0  0  0
    6.7489    8.1158    1.5578 H   0  0  0  0  0  0  0  0  0  0  0  0
    5.7925    9.5175    1.0223 H   0  0  0  0  0  0  0  0  0  0  0  0
    2.3431    4.9942    3.2234 H   0  0  0  0  0  0  0  0  0  0  0  0
    3.4587    6.0552    3.9412 H   0  0  0  0  0  0  0  0  0  0  0  0
    1.1220    4.7930    1.6103 H   0  0  0  0  0  0  0  0  0  0  0  0
    0.4653    6.1182    0.6853 H   0  0  0  0  0  0  0  0  0  0  0  0
    3.7228    2.1758   -0.0097 H   0  0  0  0  0  0  0  0  0  0  0  0
    3.9549    3.8996   -0.1448 H   0  0  0  0  0  0  0  0  0  0  0  0
    3.0934    3.2205    1.2598 H   0  0  0  0  0  0  0  0  0  0  0  0
    2.7473    0.7155   -1.5526 H   0  0  0  0  0  0  0  0  0  0  0  0
    1.0930    0.2846   -1.9496 H   0  0  0  0  0  0  0  0  0  0  0  0
    2.1513    0.6785    0.9122 H   0  0  0  0  0  0  0  0  0  0  0  0
    1.8486   -0.8607    0.1077 H   0  0  0  0  0  0  0  0  0  0  0  0
   -0.6680    5.1009   -1.3202 H   0  0  0  0  0  0  0  0  0  0  0  0
   -0.8396    3.9645    0.0585 H   0  0  0  0  0  0  0  0  0  0  0  0
 27  1  1  0
  1  2  2  0
  2  3  1  0
  3  4  1  0
  4 28  1  0
  4 29  1  0
  4 30  1  0
  3  5  2  0
  5  6  1  0
  6  7  1  0
  7 31  1  0
  7 32  1  0
  1  8  1  0
  6  8  2  0
  8  9  1  0
  9 33  1  0
  9 34  1  0
  9 10  1  0
 10 11  1  0
 11 12  1  0
 12 35  1  0
 12 36  1  0
 12 37  1  0
 11 13  2  0
 13 14  1  0
 14 38  1  0
 14 39  1  0
 14 15  1  0
 15 40  1  0
 15 41  1  0
 15 16  1  0
 16 17  1  0
 17 18  2  0
 17 19  1  6
 17 20  1  0
 20 21  1  0
 21 22  2  0
 21 23  1  0
 21 24  1  0
 13 25  1  0
 10 26  1  0
 25 26  1  0
 26 42  1  0
 26 43  1  0
M  CHG  3  19  -1  23  -1  24  -1
M  END
>  <conformer_energy>  (1) 
-69.35

>  <ligand_smiles>  (1) 
CC1=C(CCO[P@](=O)([O-])OP(=O)([O-])[O-])SCN1Cc1cnc(C)nc1N

>  <ligand_conf_name>  (1) 
MOL_0_isomer_0_conf_0

>  <ligand_molecule_name>  (1) 
MOL_0_isomer_0

$$$$
