MOL_0_isomer_0_conf_0
     RDKit          3D

 61 64  0  0  0  0  0  0  0  0999 V2000
    9.5716    5.7467    0.7739 O   0  0  0  0  0  0  0  0  0  0  0  0
    9.2663    4.3703    0.6080 C   0  0  1  0  0  0  0  0  0  0  0  0
   10.2624    3.4501    1.3211 C   0  0  0  0  0  0  0  0  0  0  0  0
    9.4625    2.3646    1.8689 N   0  0  0  0  0  0  0  0  0  0  0  0
    9.8981    1.2779    2.5884 C   0  0  0  0  0  0  0  0  0  0  0  0
    9.0969    0.4434    3.0216 O   0  0  0  0  0  0  0  0  0  0  0  0
   11.4146    1.1450    2.8546 C   0  0  1  0  0  0  0  0  0  0  0  0
   11.6527    1.0305    4.2906 N   0  0  0  0  0  0  0  0  0  0  0  0
   11.6335    2.1362    5.1046 C   0  0  0  0  0  0  0  0  0  0  0  0
   11.4439    3.2701    4.6659 O   0  0  0  0  0  0  0  0  0  0  0  0
   11.8587    1.8927    6.5741 C   0  0  0  0  0  0  0  0  0  0  0  0
   11.8583   -0.3526    4.6930 C   0  0  0  0  0  0  0  0  0  0  0  0
   11.7181   -1.1786    3.4110 C   0  0  2  0  0  0  0  0  0  0  0  0
   12.6637   -2.2375    3.3447 O   0  0  0  0  0  0  0  0  0  0  0  0
   11.9504   -0.1660    2.2877 C   0  0  0  0  0  0  0  0  0  0  0  0
    8.0483    2.5481    1.5743 C   0  0  2  0  0  0  0  0  0  0  0  0
    7.6296    1.7029    0.3546 C   0  0  0  0  0  0  0  0  0  0  0  0
    8.3824    1.4709   -0.5899 O   0  0  0  0  0  0  0  0  0  0  0  0
    6.3147    1.2953    0.3763 N   0  0  0  0  0  0  0  0  0  0  0  0
    5.7614    0.5101   -0.7002 C   0  0  0  0  0  0  0  0  0  0  0  0
    4.2785    0.3298   -0.5166 C   0  0  0  0  0  0  0  0  0  0  0  0
    3.7816   -0.7331    0.2500 C   0  0  0  0  0  0  0  0  0  0  0  0
    2.4060   -0.8792    0.4529 C   0  0  0  0  0  0  0  0  0  0  0  0
    1.5030    0.0386   -0.1002 C   0  0  0  0  0  0  0  0  0  0  0  0
    0.0627   -0.1107    0.1004 C   0  0  0  0  0  0  0  0  0  0  0  0
   -0.6003   -0.0376    1.6858 S   0  0  0  0  0  0  0  0  0  0  0  0
   -2.1646   -0.2504    1.0277 C   0  0  0  0  0  0  0  0  0  0  0  0
   -2.2336   -0.3730   -0.2780 N   0  0  0  0  0  0  0  0  0  0  0  0
   -0.9584   -0.2972   -0.8220 C   0  0  0  0  0  0  0  0  0  0  0  0
   -0.8184   -0.4266   -2.2975 C   0  0  0  0  0  0  0  0  0  0  0  0
    2.0010    1.1043   -0.8611 C   0  0  0  0  0  0  0  0  0  0  0  0
    3.3766    1.2524   -1.0629 C   0  0  0  0  0  0  0  0  0  0  0  0
    7.9241    4.0335    1.2596 C   0  0  0  0  0  0  0  0  0  0  0  0
    9.6642    5.9278    1.7266 H   0  0  0  0  0  0  0  0  0  0  0  0
    9.2395    4.1479   -0.4642 H   0  0  0  0  0  0  0  0  0  0  0  0
   10.7884    3.9581    2.1348 H   0  0  0  0  0  0  0  0  0  0  0  0
   11.0049    3.0456    0.6259 H   0  0  0  0  0  0  0  0  0  0  0  0
   11.9718    1.9971    2.4607 H   0  0  0  0  0  0  0  0  0  0  0  0
   11.8275    2.8451    7.1111 H   0  0  0  0  0  0  0  0  0  0  0  0
   12.8371    1.4319    6.7337 H   0  0  0  0  0  0  0  0  0  0  0  0
   11.0745    1.2439    6.9716 H   0  0  0  0  0  0  0  0  0  0  0  0
   12.8499   -0.4476    5.1478 H   0  0  0  0  0  0  0  0  0  0  0  0
   11.1095   -0.6352    5.4396 H   0  0  0  0  0  0  0  0  0  0  0  0
   10.7148   -1.6114    3.3421 H   0  0  0  0  0  0  0  0  0  0  0  0
   13.5581   -1.8561    3.3345 H   0  0  0  0  0  0  0  0  0  0  0  0
   11.4619   -0.4719    1.3564 H   0  0  0  0  0  0  0  0  0  0  0  0
   13.0231   -0.0747    2.0752 H   0  0  0  0  0  0  0  0  0  0  0  0
    7.4388    2.2653    2.4402 H   0  0  0  0  0  0  0  0  0  0  0  0
    5.7471    1.4504    1.1998 H   0  0  0  0  0  0  0  0  0  0  0  0
    6.2716   -0.4598   -0.7201 H   0  0  0  0  0  0  0  0  0  0  0  0
    5.9794    1.0045   -1.6541 H   0  0  0  0  0  0  0  0  0  0  0  0
    4.4639   -1.4558    0.6950 H   0  0  0  0  0  0  0  0  0  0  0  0
    2.0452   -1.7194    1.0434 H   0  0  0  0  0  0  0  0  0  0  0  0
   -3.0446   -0.2803    1.6566 H   0  0  0  0  0  0  0  0  0  0  0  0
   -1.7521   -0.7787   -2.7482 H   0  0  0  0  0  0  0  0  0  0  0  0
   -0.0310   -1.1427   -2.5530 H   0  0  0  0  0  0  0  0  0  0  0  0
   -0.5708    0.5420   -2.7436 H   0  0  0  0  0  0  0  0  0  0  0  0
    1.3209    1.8367   -1.2925 H   0  0  0  0  0  0  0  0  0  0  0  0
    3.7402    2.0960   -1.6474 H   0  0  0  0  0  0  0  0  0  0  0  0
    7.0817    4.2783    0.6047 H   0  0  0  0  0  0  0  0  0  0  0  0
    7.7972    4.6105    2.1843 H   0  0  0  0  0  0  0  0  0  0  0  0
 34  1  1  0
  1  2  1  0
  2 35  1  6
  2  3  1  0
  3 36  1  0
  3 37  1  0
  3  4  1  0
  4  5  1  0
  5  6  2  0
  5  7  1  0
  7 38  1  6
  7  8  1  0
  8  9  1  0
  9 10  2  0
  9 11  1  0
 11 39  1  0
 11 40  1  0
 11 41  1  0
  8 12  1  0
 12 42  1  0
 12 43  1  0
 12 13  1  0
 13 44  1  6
 13 14  1  0
 14 45  1  0
  7 15  1  0
 13 15  1  0
 15 46  1  0
 15 47  1  0
  4 16  1  0
 16 48  1  1
 16 17  1  0
 17 18  2  0
 17 19  1  0
 19 49  1  0
 19 20  1  0
 20 50  1  0
 20 51  1  0
 20 21  1  0
 21 22  2  0
 22 52  1  0
 22 23  1  0
 23 53  1  0
 23 24  2  0
 24 25  1  0
 25 26  1  0
 26 27  1  0
 27 54  1  0
 27 28  2  0
 25 29  2  0
 28 29  1  0
 29 30  1  0
 30 55  1  0
 30 56  1  0
 30 57  1  0
 24 31  1  0
 31 58  1  0
 21 32  1  0
 31 32  2  0
 32 59  1  0
  2 33  1  0
 16 33  1  0
 33 60  1  0
 33 61  1  0
M  END
>  <conformer_energy>  (1) 
73.64

>  <ligand_smiles>  (1) 
CC(=O)N1C[C@H](O)C[C@H]1C(=O)N1C[C@H](O)C[C@H]1C(=O)NCc1ccc(-c2scnc2C)cc1

>  <ligand_conf_name>  (1) 
MOL_0_isomer_0_conf_0

>  <ligand_molecule_name>  (1) 
MOL_0_isomer_0

$$$$
