MOL_0_isomer_0_conf_0
     RDKit          3D

 19 19  0  0  0  0  0  0  0  0999 V2000
    1.3666    0.0150   -2.3069 O   0  0  0  0  0  0  0  0  0  0  0  0
    2.0801    0.0048   -1.1394 C   0  0  0  0  0  0  0  0  0  0  0  0
    3.4676   -0.0011   -1.2223 C   0  0  0  0  0  0  0  0  0  0  0  0
    4.2182   -0.0114   -0.0492 C   0  0  0  0  0  0  0  0  0  0  0  0
    3.5665   -0.0156    1.1891 C   0  0  0  0  0  0  0  0  0  0  0  0
    4.3574   -0.0265    2.4370 C   0  0  0  0  0  0  0  0  0  0  0  0
    5.5817   -0.0322    2.4348 O   0  0  0  0  0  0  0  0  0  0  0  0
    2.1660   -0.0096    1.2680 C   0  0  0  0  0  0  0  0  0  0  0  0
    1.4133    0.0007    0.0936 C   0  0  0  0  0  0  0  0  0  0  0  0
    0.0448    0.0075    0.0085 O   0  0  0  0  0  0  0  0  0  0  0  0
   -0.6760    0.0035    1.2355 C   0  0  0  0  0  0  0  0  0  0  0  0
    0.4284    0.0177   -2.0347 H   0  0  0  0  0  0  0  0  0  0  0  0
    3.9572    0.0023   -2.1919 H   0  0  0  0  0  0  0  0  0  0  0  0
    5.3051   -0.0161   -0.1015 H   0  0  0  0  0  0  0  0  0  0  0  0
    3.7879   -0.0294    3.3814 H   0  0  0  0  0  0  0  0  0  0  0  0
    1.6908   -0.0131    2.2424 H   0  0  0  0  0  0  0  0  0  0  0  0
   -1.7436    0.0097    0.9958 H   0  0  0  0  0  0  0  0  0  0  0  0
   -0.4603    0.9026    1.8220 H   0  0  0  0  0  0  0  0  0  0  0  0
   -0.4685   -0.9045    1.8113 H   0  0  0  0  0  0  0  0  0  0  0  0
 12  1  1  0
  1  2  1  0
  2  3  2  0
  3 13  1  0
  3  4  1  0
  4 14  1  0
  4  5  2  0
  5  6  1  0
  6 15  1  0
  6  7  2  0
  5  8  1  0
  8 16  1  0
  2  9  1  0
  8  9  2  0
  9 10  1  0
 10 11  1  0
 11 17  1  0
 11 18  1  0
 11 19  1  0
M  END
>  <conformer_energy>  (1) 
29.31

>  <ligand_smiles>  (1) 
COc1cc(C=O)ccc1O

>  <ligand_conf_name>  (1) 
MOL_0_isomer_0_conf_0

>  <ligand_molecule_name>  (1) 
MOL_0_isomer_0

$$$$
