MOL_0_isomer_0_conf_0
     RDKit          3D

 52 55  0  0  0  0  0  0  0  0999 V2000
   -1.4632   -4.0415   -0.3642 C   0  0  0  0  0  0  0  0  0  0  0  0
   -0.4203   -3.2116   -0.2765 N   0  0  0  0  0  0  0  0  0  0  0  0
    0.4464   -3.1135   -1.3116 C   0  0  0  0  0  0  0  0  0  0  0  0
    1.5181   -2.2682   -1.2127 N   0  0  0  0  0  0  0  0  0  0  0  0
    1.8675   -1.5185    0.0050 C   0  0  1  0  0  0  0  0  0  0  0  0
    3.4299   -1.4393    0.1195 C   0  0  0  0  0  0  0  0  0  0  0  0
    4.0666   -1.7290   -0.9436 O   0  0  0  0  0  0  0  0  0  0  0  0
    3.8841   -1.1015    1.2519 O   0  0  0  0  0  1  0  0  0  0  0  0
    1.4374   -0.0498   -0.1018 C   0  0  0  0  0  0  0  0  0  0  0  0
   -0.0484    0.1738    0.0965 C   0  0  0  0  0  0  0  0  0  0  0  0
   -0.5856    0.2487    1.3883 C   0  0  0  0  0  0  0  0  0  0  0  0
   -1.9545    0.4476    1.5750 C   0  0  0  0  0  0  0  0  0  0  0  0
   -2.7991    0.5686    0.4723 C   0  0  0  0  0  0  0  0  0  0  0  0
   -2.2756    0.4873   -0.8173 C   0  0  0  0  0  0  0  0  0  0  0  0
   -0.9066    0.2905   -1.0043 C   0  0  0  0  0  0  0  0  0  0  0  0
    0.2003   -3.9060   -2.4589 C   0  0  0  0  0  0  0  0  0  0  0  0
    0.8556   -4.0457   -3.7455 C   0  0  0  0  0  0  0  0  0  0  0  0
    2.0230   -3.2993   -4.2059 C   0  0  0  0  0  0  0  0  0  0  0  0
    3.2881   -3.8598   -3.9650 C   0  0  0  0  0  0  0  0  0  0  0  0
    4.4448   -3.1825   -4.3385 C   0  0  0  0  0  0  0  0  0  0  0  0
    4.3469   -1.9430   -4.9618 C   0  0  0  0  0  0  0  0  0  0  0  0
    3.0928   -1.3748   -5.2035 C   0  0  0  0  0  0  0  0  0  0  0  0
    3.0626    0.1748   -5.9781 Cl  0  0  0  0  0  0  0  0  0  0  0  0
    1.9069   -2.0371   -4.8295 C   0  0  0  0  0  0  0  0  0  0  0  0
    0.5735   -1.3675   -5.0403 C   0  0  0  0  0  0  0  0  0  0  0  0
    0.2534   -4.9996   -4.5560 C   0  0  0  0  0  0  0  0  0  0  0  0
    0.6342   -5.4742   -5.9315 C   0  0  0  0  0  0  0  0  0  0  0  0
   -0.0778   -4.6936   -7.0263 C   0  0  0  0  0  0  0  0  0  0  0  0
   -1.1193   -5.6832   -3.7917 S   0  0  0  0  0  0  0  0  0  0  0  0
   -0.9091   -4.7347   -2.3953 C   0  0  0  0  0  0  0  0  0  0  0  0
   -1.7817   -4.8474   -1.3793 N   0  0  0  0  0  0  0  0  0  0  0  0
   -2.1235   -4.0617    0.4960 H   0  0  0  0  0  0  0  0  0  0  0  0
    2.3118   -2.3321   -1.8502 H   0  0  0  0  0  0  0  0  0  0  0  0
    1.4887   -2.0051    0.9116 H   0  0  0  0  0  0  0  0  0  0  0  0
    1.7328    0.3627   -1.0770 H   0  0  0  0  0  0  0  0  0  0  0  0
    1.9611    0.5699    0.6389 H   0  0  0  0  0  0  0  0  0  0  0  0
    0.0682    0.1414    2.2513 H   0  0  0  0  0  0  0  0  0  0  0  0
   -2.3581    0.4996    2.5815 H   0  0  0  0  0  0  0  0  0  0  0  0
   -3.8646    0.7164    0.6176 H   0  0  0  0  0  0  0  0  0  0  0  0
   -2.9306    0.5662   -1.6794 H   0  0  0  0  0  0  0  0  0  0  0  0
   -0.5047    0.2065   -2.0109 H   0  0  0  0  0  0  0  0  0  0  0  0
    3.3784   -4.8089   -3.4404 H   0  0  0  0  0  0  0  0  0  0  0  0
    5.4197   -3.6001   -4.1029 H   0  0  0  0  0  0  0  0  0  0  0  0
    5.2546   -1.4065   -5.2238 H   0  0  0  0  0  0  0  0  0  0  0  0
    0.4914   -0.4881   -4.3932 H   0  0  0  0  0  0  0  0  0  0  0  0
   -0.2777   -2.0161   -4.8194 H   0  0  0  0  0  0  0  0  0  0  0  0
    0.4599   -1.0619   -6.0858 H   0  0  0  0  0  0  0  0  0  0  0  0
    0.4012   -6.5409   -6.0401 H   0  0  0  0  0  0  0  0  0  0  0  0
    1.7173   -5.3896   -6.0749 H   0  0  0  0  0  0  0  0  0  0  0  0
    0.1770   -3.6303   -6.9899 H   0  0  0  0  0  0  0  0  0  0  0  0
   -1.1658   -4.7814   -6.9378 H   0  0  0  0  0  0  0  0  0  0  0  0
    0.2126   -5.0749   -8.0105 H   0  0  0  0  0  0  0  0  0  0  0  0
 32  1  1  0
  1  2  2  0
  2  3  1  0
  3  4  1  0
  4 33  1  0
  4  5  1  0
  5 34  1  1
  5  6  1  0
  6  7  2  0
  6  8  1  0
  5  9  1  0
  9 35  1  0
  9 36  1  0
  9 10  1  0
 10 11  2  0
 11 37  1  0
 11 12  1  0
 12 38  1  0
 12 13  2  0
 13 39  1  0
 13 14  1  0
 14 40  1  0
 10 15  1  0
 14 15  2  0
 15 41  1  0
  3 16  2  0
 16 17  1  0
 17 18  1  0
 18 19  2  0
 19 42  1  0
 19 20  1  0
 20 43  1  0
 20 21  2  0
 21 44  1  0
 21 22  1  0
 22 23  1  0
 18 24  1  0
 22 24  2  0
 24 25  1  0
 25 45  1  0
 25 46  1  0
 25 47  1  0
 17 26  2  0
 26 27  1  0
 27 48  1  0
 27 49  1  0
 27 28  1  0
 28 50  1  0
 28 51  1  0
 28 52  1  0
 26 29  1  0
 16 30  1  0
 29 30  1  0
  1 31  1  0
 30 31  2  0
M  CHG  1   8  -1
M  END
>  <conformer_energy>  (1) 
89.94

>  <ligand_smiles>  (1) 
CCc1sc2ncnc(N[C@H](Cc3ccccc3)C(=O)[O-])c2c1-c1cccc(Cl)c1C

>  <ligand_conf_name>  (1) 
MOL_0_isomer_0_conf_0

>  <ligand_molecule_name>  (1) 
MOL_0_isomer_0

$$$$
