MOL_0_isomer_0_conf_0
     RDKit          3D

 37 36  0  0  0  0  0  0  0  0999 V2000
   -0.2200   -1.8426   -1.2722 N   0  0  0  0  0  0  0  0  0  0  0  0
    0.7446   -0.9901   -0.8103 C   0  0  0  0  0  0  0  0  0  0  0  0
    1.9519   -1.2446   -0.9320 O   0  0  0  0  0  0  0  0  0  0  0  0
    0.2304    0.2970   -0.1099 C   0  0  1  0  0  0  0  0  0  0  0  0
    1.3594    0.8323    0.6711 N   0  0  0  0  0  0  0  0  0  0  0  0
    1.8485    0.2043    1.7805 C   0  0  0  0  0  0  0  0  0  0  0  0
    1.3977   -0.8408    2.2457 O   0  0  0  0  0  0  0  0  0  0  0  0
    3.1177    0.8213    2.3186 C   0  0  0  0  0  0  0  0  0  0  0  0
    4.1491   -0.2558    2.6749 C   0  0  0  0  0  0  0  0  0  0  0  0
    4.6056   -1.1110    1.4845 C   0  0  1  0  0  0  0  0  0  0  0  0
    5.8814   -1.9340    1.8585 C   0  0  0  0  0  0  0  0  0  0  0  0
    6.8664   -1.3026    2.3126 O   0  0  0  0  0  0  0  0  0  0  0  0
    5.7126   -3.1738    1.6219 O   0  0  0  0  0  1  0  0  0  0  0  0
    3.5031   -2.0362    1.0319 N   0  0  0  0  0  4  0  0  0  0  0  0
   -0.2381    1.2766   -1.1840 C   0  0  0  0  0  0  0  0  0  0  0  0
   -0.7824    2.8498   -0.3840 S   0  0  0  0  0  4  0  0  0  0  0  0
   -2.0681    2.4177    0.2752 O   0  0  0  0  0  0  0  0  0  0  0  0
   -0.9432    3.7446   -1.5885 O   0  0  0  0  0  1  0  0  0  0  0  0
    0.0780   -3.1131   -1.9426 C   0  0  0  0  0  0  0  0  0  0  0  0
   -1.1542   -4.0107   -2.2112 C   0  0  0  0  0  0  0  0  0  0  0  0
   -0.9023   -5.1201   -2.7632 O   0  0  0  0  0  0  0  0  0  0  0  0
   -2.2629   -3.5237   -1.8387 O   0  0  0  0  0  1  0  0  0  0  0  0
   -1.2174   -1.6665   -1.1467 H   0  0  0  0  0  0  0  0  0  0  0  0
   -0.5712    0.0231    0.5863 H   0  0  0  0  0  0  0  0  0  0  0  0
    1.7115    1.7391    0.3933 H   0  0  0  0  0  0  0  0  0  0  0  0
    2.8549    1.3955    3.2138 H   0  0  0  0  0  0  0  0  0  0  0  0
    3.5502    1.5174    1.5913 H   0  0  0  0  0  0  0  0  0  0  0  0
    3.7546   -0.9065    3.4665 H   0  0  0  0  0  0  0  0  0  0  0  0
    5.0127    0.2585    3.1144 H   0  0  0  0  0  0  0  0  0  0  0  0
    4.8513   -0.4879    0.6173 H   0  0  0  0  0  0  0  0  0  0  0  0
    3.0967   -1.8006    0.1057 H   0  0  0  0  0  0  0  0  0  0  0  0
    3.9627   -2.9673    0.9686 H   0  0  0  0  0  0  0  0  0  0  0  0
    2.7134   -2.1146    1.6889 H   0  0  0  0  0  0  0  0  0  0  0  0
    0.5803    1.5302   -1.8671 H   0  0  0  0  0  0  0  0  0  0  0  0
   -1.0729    0.8822   -1.7720 H   0  0  0  0  0  0  0  0  0  0  0  0
    0.5633   -2.8731   -2.8949 H   0  0  0  0  0  0  0  0  0  0  0  0
    0.7950   -3.6615   -1.3217 H   0  0  0  0  0  0  0  0  0  0  0  0
 23  1  1  0
  1  2  1  0
  2  3  2  0
  2  4  1  0
  4 24  1  1
  4  5  1  0
  5 25  1  0
  5  6  1  0
  6  7  2  0
  6  8  1  0
  8 26  1  0
  8 27  1  0
  8  9  1  0
  9 28  1  0
  9 29  1  0
  9 10  1  0
 10 30  1  6
 10 11  1  0
 11 12  2  0
 11 13  1  0
 10 14  1  0
 14 31  1  0
 14 32  1  0
 14 33  1  0
  4 15  1  0
 15 34  1  0
 15 35  1  0
 15 16  1  0
 16 17  2  0
 16 18  1  6
  1 19  1  0
 19 36  1  0
 19 37  1  0
 19 20  1  0
 20 21  2  0
 20 22  1  0
M  CHG  4  13  -1  14   1  18  -1  22  -1
M  END
>  <conformer_energy>  (1) 
26.00

>  <ligand_smiles>  (1) 
[NH3+][C@@H](CCC(=O)N[C@@H](C[S@](=O)[O-])C(=O)NCC(=O)[O-])C(=O)[O-]

>  <ligand_conf_name>  (1) 
MOL_0_isomer_0_conf_0

>  <ligand_molecule_name>  (1) 
MOL_0_isomer_0

$$$$
