MOL_0_isomer_0_conf_0
     RDKit          3D

 51 54  0  0  0  0  0  0  0  0999 V2000
    4.7168   -3.6119    8.0420 C   0  0  0  0  0  0  0  0  0  0  0  0
    5.0673   -2.5087    7.3540 N   0  0  0  0  0  0  0  0  0  0  0  0
    4.4721   -2.2397    6.1576 C   0  0  0  0  0  0  0  0  0  0  0  0
    4.8672   -1.0976    5.4627 N   0  0  0  0  0  0  0  0  0  0  0  0
    5.5346   -0.0790    6.2635 C   0  0  0  0  0  0  0  0  0  0  0  0
    5.1027   -1.1776    4.0158 C   0  0  1  0  0  0  0  0  0  0  0  0
    4.3657   -0.0419    3.2729 C   0  0  0  0  0  0  0  0  0  0  0  0
    4.6370   -0.0806    1.8311 N   0  0  0  0  0  0  0  0  0  0  0  0
    3.6709   -0.0625    0.8309 C   0  0  0  0  0  0  0  0  0  0  0  0
    3.9697   -0.0565   -0.3680 O   0  0  0  0  0  0  0  0  0  0  0  0
    2.1924   -0.0564    1.2648 C   0  0  0  0  0  0  0  0  0  0  0  0
    1.3221   -0.0614    0.0946 N   0  0  0  0  0  0  0  0  0  0  0  0
   -0.0535   -0.0821    0.1269 C   0  0  0  0  0  0  0  0  0  0  0  0
   -0.7937   -0.1001    1.3140 C   0  0  0  0  0  0  0  0  0  0  0  0
   -2.1917   -0.1233    1.2889 C   0  0  0  0  0  0  0  0  0  0  0  0
   -3.0672   -0.1472    2.7718 Cl  0  0  0  0  0  0  0  0  0  0  0  0
   -2.8827   -0.1282    0.0835 C   0  0  0  0  0  0  0  0  0  0  0  0
   -2.1584   -0.1098   -1.1015 C   0  0  0  0  0  0  0  0  0  0  0  0
   -2.9910   -0.1157   -2.6084 Cl  0  0  0  0  0  0  0  0  0  0  0  0
   -0.7616   -0.0872   -1.0824 C   0  0  0  0  0  0  0  0  0  0  0  0
    6.0520   -0.0668    1.4626 C   0  0  0  0  0  0  0  0  0  0  0  0
    6.8135   -1.1929    2.1599 C   0  0  0  0  0  0  0  0  0  0  0  0
    6.6041   -1.1541    3.6753 C   0  0  0  0  0  0  0  0  0  0  0  0
    3.4588   -3.1351    5.7376 C   0  0  0  0  0  0  0  0  0  0  0  0
    2.5272   -3.2316    4.6585 C   0  0  0  0  0  0  0  0  0  0  0  0
    1.7769   -4.3749    4.8360 C   0  0  0  0  0  0  0  0  0  0  0  0
    2.2044   -4.9724    5.9919 N   0  0  0  0  0  0  0  0  0  0  0  0
    3.2029   -4.2272    6.5562 C   0  0  0  0  0  0  0  0  0  0  0  0
    3.8017   -4.5338    7.7141 N   0  0  0  0  0  0  0  0  0  0  0  0
    5.2423   -3.7723    8.9783 H   0  0  0  0  0  0  0  0  0  0  0  0
    5.6412    0.8562    5.7047 H   0  0  0  0  0  0  0  0  0  0  0  0
    6.5371   -0.4034    6.5651 H   0  0  0  0  0  0  0  0  0  0  0  0
    4.9539    0.1617    7.1620 H   0  0  0  0  0  0  0  0  0  0  0  0
    4.7219   -2.1222    3.6101 H   0  0  0  0  0  0  0  0  0  0  0  0
    4.6976    0.9417    3.6256 H   0  0  0  0  0  0  0  0  0  0  0  0
    3.2958   -0.1019    3.4838 H   0  0  0  0  0  0  0  0  0  0  0  0
    2.0085   -0.9540    1.8640 H   0  0  0  0  0  0  0  0  0  0  0  0
    2.0109    0.8446    1.8601 H   0  0  0  0  0  0  0  0  0  0  0  0
    1.8127   -0.0491   -0.7996 H   0  0  0  0  0  0  0  0  0  0  0  0
   -0.2922   -0.0962    2.2769 H   0  0  0  0  0  0  0  0  0  0  0  0
   -3.9681   -0.1460    0.0679 H   0  0  0  0  0  0  0  0  0  0  0  0
   -0.2175   -0.0735   -2.0243 H   0  0  0  0  0  0  0  0  0  0  0  0
    6.4557    0.9077    1.7624 H   0  0  0  0  0  0  0  0  0  0  0  0
    6.1835   -0.1536    0.3797 H   0  0  0  0  0  0  0  0  0  0  0  0
    6.4686   -2.1602    1.7736 H   0  0  0  0  0  0  0  0  0  0  0  0
    7.8821   -1.1151    1.9313 H   0  0  0  0  0  0  0  0  0  0  0  0
    7.1091   -2.0091    4.1404 H   0  0  0  0  0  0  0  0  0  0  0  0
    7.0815   -0.2501    4.0721 H   0  0  0  0  0  0  0  0  0  0  0  0
    2.4087   -2.5362    3.8405 H   0  0  0  0  0  0  0  0  0  0  0  0
    0.9760   -4.8062    4.2498 H   0  0  0  0  0  0  0  0  0  0  0  0
    1.8404   -5.8212    6.4003 H   0  0  0  0  0  0  0  0  0  0  0  0
 30  1  1  0
  1  2  2  0
  2  3  1  0
  3  4  1  0
  4  5  1  0
  5 31  1  0
  5 32  1  0
  5 33  1  0
  4  6  1  0
  6 34  1  6
  6  7  1  0
  7 35  1  0
  7 36  1  0
  7  8  1  0
  8  9  1  0
  9 10  2  0
  9 11  1  0
 11 37  1  0
 11 38  1  0
 11 12  1  0
 12 39  1  0
 12 13  1  0
 13 14  2  0
 14 40  1  0
 14 15  1  0
 15 16  1  0
 15 17  2  0
 17 41  1  0
 17 18  1  0
 18 19  1  0
 13 20  1  0
 18 20  2  0
 20 42  1  0
  8 21  1  0
 21 43  1  0
 21 44  1  0
 21 22  1  0
 22 45  1  0
 22 46  1  0
  6 23  1  0
 22 23  1  0
 23 47  1  0
 23 48  1  0
  3 24  2  0
 24 25  1  0
 25 49  1  0
 25 26  2  0
 26 50  1  0
 26 27  1  0
 27 51  1  0
 24 28  1  0
 27 28  1  0
  1 29  1  0
 28 29  2  0
M  END
>  <conformer_energy>  (1) 
45.50

>  <ligand_smiles>  (1) 
CN(c1ncnc2[nH]ccc12)[C@@H]1CCCN(C(=O)CNc2cc(Cl)cc(Cl)c2)C1

>  <ligand_conf_name>  (1) 
MOL_0_isomer_0_conf_0

>  <ligand_molecule_name>  (1) 
MOL_0_isomer_0

$$$$
