MOL_0_isomer_0_conf_0
     RDKit          3D

 44 46  0  0  0  0  0  0  0  0999 V2000
   10.8289    0.7677   -1.1013 C   0  0  0  0  0  0  0  0  0  0  0  0
   12.2062    0.8686   -1.3327 C   0  0  0  0  0  0  0  0  0  0  0  0
   12.6999    1.0906   -2.6244 C   0  0  0  0  0  0  0  0  0  0  0  0
   14.1780    1.1611   -2.8699 C   0  0  0  0  0  0  0  0  0  0  0  0
   14.7634   -0.1916   -2.9877 N   0  0  0  0  0  4  0  0  0  0  0  0
   11.7857    1.2051   -3.6796 C   0  0  0  0  0  0  0  0  0  0  0  0
   10.4083    1.1096   -3.4410 C   0  0  0  0  0  0  0  0  0  0  0  0
    9.9164    0.8839   -2.1505 C   0  0  0  0  0  0  0  0  0  0  0  0
    8.5155    0.8097   -1.9877 N   0  0  0  0  0  0  0  0  0  0  0  0
    7.8322    0.4892   -0.8263 C   0  0  0  0  0  0  0  0  0  0  0  0
    8.3306    0.0933    0.2208 O   0  0  0  0  0  0  0  0  0  0  0  0
    6.3456    0.6023   -0.8961 C   0  0  0  0  0  0  0  0  0  0  0  0
    5.7069    1.5727   -1.6738 C   0  0  0  0  0  0  0  0  0  0  0  0
    4.3099    1.6613   -1.6731 C   0  0  0  0  0  0  0  0  0  0  0  0
    3.5303    0.7934   -0.8888 C   0  0  0  0  0  0  0  0  0  0  0  0
    2.1257    0.8810   -0.8631 C   0  0  0  0  0  0  0  0  0  0  0  0
    1.3553    0.0245   -0.0581 C   0  0  0  0  0  0  0  0  0  0  0  0
   -0.1098    0.1389   -0.0256 C   0  0  0  0  0  0  0  0  0  0  0  0
   -0.7865    0.0833   -1.1518 N   0  0  0  0  0  0  0  0  0  0  0  0
   -0.7166    0.2975    1.1305 N   0  0  0  0  0  4  0  0  0  0  0  0
    2.0098   -0.9368    0.7220 C   0  0  0  0  0  0  0  0  0  0  0  0
    3.4031   -1.0379    0.7026 C   0  0  0  0  0  0  0  0  0  0  0  0
    4.1752   -0.1795   -0.0934 C   0  0  0  0  0  0  0  0  0  0  0  0
    5.5769   -0.2629   -0.1049 C   0  0  0  0  0  0  0  0  0  0  0  0
   10.4990    0.6144   -0.0769 H   0  0  0  0  0  0  0  0  0  0  0  0
   12.8739    0.7863   -0.4759 H   0  0  0  0  0  0  0  0  0  0  0  0
   14.6949    1.6672   -2.0478 H   0  0  0  0  0  0  0  0  0  0  0  0
   14.4091    1.6919   -3.7992 H   0  0  0  0  0  0  0  0  0  0  0  0
   14.3277   -0.7108   -3.7594 H   0  0  0  0  0  0  0  0  0  0  0  0
   14.6020   -0.7335   -2.1298 H   0  0  0  0  0  0  0  0  0  0  0  0
   15.7754   -0.1538   -3.1558 H   0  0  0  0  0  0  0  0  0  0  0  0
   12.1217    1.3846   -4.7002 H   0  0  0  0  0  0  0  0  0  0  0  0
    9.7260    1.2137   -4.2825 H   0  0  0  0  0  0  0  0  0  0  0  0
    7.9630    0.9661   -2.8206 H   0  0  0  0  0  0  0  0  0  0  0  0
    6.2752    2.2952   -2.2538 H   0  0  0  0  0  0  0  0  0  0  0  0
    3.8378    2.4338   -2.2785 H   0  0  0  0  0  0  0  0  0  0  0  0
    1.6330    1.6468   -1.4617 H   0  0  0  0  0  0  0  0  0  0  0  0
   -0.3013   -0.0728   -2.0297 H   0  0  0  0  0  0  0  0  0  0  0  0
   -1.7948    0.1548   -1.1853 H   0  0  0  0  0  0  0  0  0  0  0  0
   -0.1725    0.3598    1.9859 H   0  0  0  0  0  0  0  0  0  0  0  0
   -1.7208    0.3826    1.2146 H   0  0  0  0  0  0  0  0  0  0  0  0
    1.4478   -1.6292    1.3474 H   0  0  0  0  0  0  0  0  0  0  0  0
    3.8872   -1.7947    1.3203 H   0  0  0  0  0  0  0  0  0  0  0  0
    6.0844   -1.0013    0.5164 H   0  0  0  0  0  0  0  0  0  0  0  0
 25  1  1  0
  1  2  2  0
  2 26  1  0
  2  3  1  0
  3  4  1  0
  4 27  1  0
  4 28  1  0
  4  5  1  0
  5 29  1  0
  5 30  1  0
  5 31  1  0
  3  6  2  0
  6 32  1  0
  6  7  1  0
  7 33  1  0
  1  8  1  0
  7  8  2  0
  8  9  1  0
  9 34  1  0
  9 10  1  0
 10 11  2  0
 10 12  1  0
 12 13  2  0
 13 35  1  0
 13 14  1  0
 14 36  1  0
 14 15  2  0
 15 16  1  0
 16 37  1  0
 16 17  2  0
 17 18  1  0
 18 19  1  0
 19 38  1  0
 19 39  1  0
 18 20  2  0
 20 40  1  0
 20 41  1  0
 17 21  1  0
 21 42  1  0
 21 22  2  0
 22 43  1  0
 15 23  1  0
 22 23  1  0
 12 24  1  0
 23 24  2  0
 24 44  1  0
M  CHG  2   5   1  20   1
M  END
>  <conformer_energy>  (1) 
37.42

>  <ligand_smiles>  (1) 
NC(=[NH2+])c1ccc2cc(C(=O)Nc3ccc(C[NH3+])cc3)ccc2c1

>  <ligand_conf_name>  (1) 
MOL_0_isomer_0_conf_0

>  <ligand_molecule_name>  (1) 
MOL_0_isomer_0

$$$$
