MOL_0_isomer_0_conf_0
     RDKit          3D

 33 33  0  0  0  0  0  0  0  0999 V2000
    5.5376   -2.0824   -0.2791 C   0  0  0  0  0  0  0  0  0  0  0  0
    4.2484   -1.7844   -0.6817 C   0  0  0  0  0  0  0  0  0  0  0  0
    3.7364   -2.4501   -1.9441 C   0  0  0  0  0  0  0  0  0  0  0  0
    4.8019   -2.9902   -2.6933 O   0  0  0  0  0  0  0  0  0  0  0  0
    5.0917   -4.5902   -2.4764 P   0  0  0  0  0  5  0  0  0  0  0  0
    5.1882   -4.7294   -0.9609 O   0  0  0  0  0  0  0  0  0  0  0  0
    6.4205   -4.7763   -3.1817 O   0  0  0  0  0  1  0  0  0  0  0  0
    3.8802   -5.2478   -3.1036 O   0  0  0  0  0  1  0  0  0  0  0  0
    3.4625   -0.9780    0.1724 C   0  0  0  0  0  0  0  0  0  0  0  0
    2.0034   -0.7205   -0.1910 C   0  0  0  0  0  0  0  0  0  0  0  0
    1.5057    0.5819    0.2781 N   0  0  0  0  0  4  0  0  0  0  0  0
    0.0246    0.8059    0.3266 C   0  0  0  0  0  0  0  0  0  0  0  0
   -0.3860    2.2411   -0.0897 C   0  0  0  0  0  0  0  0  0  0  0  0
   -1.5812    2.5668    0.1306 O   0  0  0  0  0  0  0  0  0  0  0  0
    0.5725    2.8885   -0.6158 O   0  0  0  0  0  1  0  0  0  0  0  0
    3.9807   -0.5013    1.4268 C   0  0  0  0  0  0  0  0  0  0  0  0
    3.2908    0.2320    2.2184 O   0  0  0  0  0  1  0  0  0  0  0  0
    5.2967   -0.9186    1.7460 C   0  0  0  0  0  0  0  0  0  0  0  0
    5.9654   -0.5566    3.0396 C   0  0  0  0  0  0  0  0  0  0  0  0
    5.9954   -1.6812    0.8989 N   0  0  0  0  0  4  0  0  0  0  0  0
    6.2279   -2.6957   -0.8492 H   0  0  0  0  0  0  0  0  0  0  0  0
    3.2621   -1.7010   -2.5845 H   0  0  0  0  0  0  0  0  0  0  0  0
    2.9909   -3.2119   -1.6913 H   0  0  0  0  0  0  0  0  0  0  0  0
    1.3858   -1.4991    0.2718 H   0  0  0  0  0  0  0  0  0  0  0  0
    1.8371   -0.7228   -1.2706 H   0  0  0  0  0  0  0  0  0  0  0  0
    1.8865    1.3767   -0.2641 H   0  0  0  0  0  0  0  0  0  0  0  0
    1.9503    0.7163    1.2182 H   0  0  0  0  0  0  0  0  0  0  0  0
   -0.2986    0.5812    1.3470 H   0  0  0  0  0  0  0  0  0  0  0  0
   -0.4390    0.1012   -0.3716 H   0  0  0  0  0  0  0  0  0  0  0  0
    6.9803   -0.9651    3.0852 H   0  0  0  0  0  0  0  0  0  0  0  0
    5.4058   -0.9641    3.8874 H   0  0  0  0  0  0  0  0  0  0  0  0
    6.0432    0.5305    3.1413 H   0  0  0  0  0  0  0  0  0  0  0  0
    6.9079   -2.0366    1.1580 H   0  0  0  0  0  0  0  0  0  0  0  0
 21  1  1  0
  1  2  2  0
  2  3  1  0
  3 22  1  0
  3 23  1  0
  3  4  1  0
  4  5  1  0
  5  6  2  0
  5  7  1  0
  5  8  1  0
  2  9  1  0
  9 10  1  0
 10 24  1  0
 10 25  1  0
 10 11  1  0
 11 26  1  0
 11 27  1  0
 11 12  1  0
 12 28  1  0
 12 29  1  0
 12 13  1  0
 13 14  2  0
 13 15  1  0
  9 16  2  0
 16 17  1  0
 16 18  1  0
 18 19  1  0
 19 30  1  0
 19 31  1  0
 19 32  1  0
  1 20  1  0
 18 20  2  0
 20 33  1  0
M  CHG  6   7  -1   8  -1  11   1  15  -1  17  -1  20   1
M  END
>  <conformer_energy>  (1) 
-181.76

>  <ligand_smiles>  (1) 
Cc1[nH+]cc(COP(=O)([O-])[O-])c(C[NH2+]CC(=O)[O-])c1[O-]

>  <ligand_conf_name>  (1) 
MOL_0_isomer_0_conf_0

>  <ligand_molecule_name>  (1) 
MOL_0_isomer_0

$$$$
