MOL_0_isomer_0_conf_0
     RDKit          3D

 53 59  0  0  0  0  0  0  0  0999 V2000
    7.3463    5.9593    0.0641 C   0  0  0  0  0  0  0  0  0  0  0  0
    8.3711    5.7608    0.9196 N   0  0  0  0  0  0  0  0  0  0  0  0
    8.7070    4.4657    1.0566 C   0  0  0  0  0  0  0  0  0  0  0  0
    8.1141    3.3666    0.4441 C   0  0  0  0  0  0  0  0  0  0  0  0
    8.8202    2.2192    0.9083 C   0  0  0  0  0  0  0  0  0  0  0  0
    9.8058    2.6487    1.7722 C   0  0  0  0  0  0  0  0  0  0  0  0
    9.7265    4.0151    1.8500 N   0  0  0  0  0  0  0  0  0  0  0  0
    7.0304    3.6311   -0.4150 C   0  0  0  0  0  0  0  0  0  0  0  0
    6.3332    2.5195   -1.1014 C   0  0  0  0  0  0  0  0  0  0  0  0
    6.9415    1.5193   -1.4594 O   0  0  0  0  0  0  0  0  0  0  0  0
    4.9774    2.6785   -1.2734 N   0  0  0  0  0  0  0  0  0  0  0  0
    4.1769    1.6597   -1.9098 C   0  0  2  0  0  0  0  0  0  0  0  0
    2.9512    2.2705   -2.5627 C   0  0  0  0  0  0  0  0  0  0  0  0
    2.9244    3.2121   -3.5837 C   0  0  0  0  0  0  0  0  0  0  0  0
    1.6840    3.6430   -4.0485 C   0  0  0  0  0  0  0  0  0  0  0  0
    0.5015    3.1297   -3.4969 C   0  0  0  0  0  0  0  0  0  0  0  0
    0.5389    2.1762   -2.4713 C   0  0  0  0  0  0  0  0  0  0  0  0
    1.7678    1.7416   -1.9982 C   0  0  0  0  0  0  0  0  0  0  0  0
    2.1262    0.7787   -0.9616 C   0  0  0  0  0  0  0  0  0  0  0  0
    1.3681   -0.0182   -0.1030 C   0  0  0  0  0  0  0  0  0  0  0  0
   -0.0872   -0.0320   -0.0932 C   0  0  0  0  0  0  0  0  0  0  0  0
   -0.8847   -0.5806   -0.9898 N   0  0  0  0  0  0  0  0  0  0  0  0
   -2.1629   -0.3908   -0.5393 C   0  0  0  0  0  0  0  0  0  0  0  0
   -3.3591   -0.7960   -1.1227 C   0  0  0  0  0  0  0  0  0  0  0  0
   -4.4594   -0.4604   -0.4357 N   0  0  0  0  0  4  0  0  0  0  0  0
   -4.4877    0.2122    0.7251 C   0  0  0  0  0  0  0  0  0  0  0  0
   -3.3196    0.6359    1.3414 C   0  0  0  0  0  0  0  0  0  0  0  0
   -2.1566    0.3052    0.6616 C   0  0  0  0  0  0  0  0  0  0  0  0
   -0.8263    0.5251    0.9257 N   0  0  0  0  0  0  0  0  0  0  0  0
    2.0491   -0.8572    0.8030 C   0  0  0  0  0  0  0  0  0  0  0  0
    3.4505   -0.9001    0.8547 C   0  0  0  0  0  0  0  0  0  0  0  0
    4.2089   -0.1048    0.0031 C   0  0  0  0  0  0  0  0  0  0  0  0
    3.5431    0.7262   -0.8889 C   0  0  0  0  0  0  0  0  0  0  0  0
    6.6541    4.9661   -0.6122 C   0  0  0  0  0  0  0  0  0  0  0  0
    7.0795    7.0048   -0.0783 H   0  0  0  0  0  0  0  0  0  0  0  0
    8.6311    1.1898    0.6285 H   0  0  0  0  0  0  0  0  0  0  0  0
   10.5572    2.1036    2.3281 H   0  0  0  0  0  0  0  0  0  0  0  0
   10.3212    4.6216    2.3959 H   0  0  0  0  0  0  0  0  0  0  0  0
    4.4932    3.4573   -0.8528 H   0  0  0  0  0  0  0  0  0  0  0  0
    4.7524    1.0828   -2.6427 H   0  0  0  0  0  0  0  0  0  0  0  0
    3.8440    3.5970   -4.0147 H   0  0  0  0  0  0  0  0  0  0  0  0
    1.6321    4.3758   -4.8511 H   0  0  0  0  0  0  0  0  0  0  0  0
   -0.4567    3.4726   -3.8808 H   0  0  0  0  0  0  0  0  0  0  0  0
   -0.3929    1.7903   -2.0799 H   0  0  0  0  0  0  0  0  0  0  0  0
   -3.4532   -1.3420   -2.0526 H   0  0  0  0  0  0  0  0  0  0  0  0
   -5.3555   -0.7459   -0.8360 H   0  0  0  0  0  0  0  0  0  0  0  0
   -5.4696    0.4018    1.1493 H   0  0  0  0  0  0  0  0  0  0  0  0
   -3.3205    1.1790    2.2805 H   0  0  0  0  0  0  0  0  0  0  0  0
   -0.4329    1.0040    1.7256 H   0  0  0  0  0  0  0  0  0  0  0  0
    1.4906   -1.5114    1.4707 H   0  0  0  0  0  0  0  0  0  0  0  0
    3.9492   -1.5675    1.5547 H   0  0  0  0  0  0  0  0  0  0  0  0
    5.2956   -0.1408    0.0272 H   0  0  0  0  0  0  0  0  0  0  0  0
    5.8601    5.2395   -1.2974 H   0  0  0  0  0  0  0  0  0  0  0  0
 35  1  1  0
  1  2  2  0
  2  3  1  0
  3  4  2  0
  4  5  1  0
  5 36  1  0
  5  6  2  0
  6 37  1  0
  3  7  1  0
  6  7  1  0
  7 38  1  0
  4  8  1  0
  8  9  1  0
  9 10  2  0
  9 11  1  0
 11 39  1  0
 11 12  1  0
 12 40  1  6
 12 13  1  0
 13 14  2  0
 14 41  1  0
 14 15  1  0
 15 42  1  0
 15 16  2  0
 16 43  1  0
 16 17  1  0
 17 44  1  0
 13 18  1  0
 17 18  2  0
 18 19  1  0
 19 20  2  0
 20 21  1  0
 21 22  2  0
 22 23  1  0
 23 24  2  0
 24 45  1  0
 24 25  1  0
 25 46  1  0
 25 26  2  0
 26 47  1  0
 26 27  1  0
 27 48  1  0
 23 28  1  0
 27 28  2  0
 21 29  1  0
 28 29  1  0
 29 49  1  0
 20 30  1  0
 30 50  1  0
 30 31  2  0
 31 51  1  0
 31 32  1  0
 32 52  1  0
 19 33  1  0
 12 33  1  0
 32 33  2  0
  1 34  1  0
  8 34  2  0
 34 53  1  0
M  CHG  1  25   1
M  END
>  <conformer_energy>  (1) 
89.19

>  <ligand_smiles>  (1) 
O=C(N[C@@H]1c2ccccc2-c2c(-c3nc4c[nH+]ccc4[nH]3)cccc21)c1ccnc2[nH]ccc12

>  <ligand_conf_name>  (1) 
MOL_0_isomer_0_conf_0

>  <ligand_molecule_name>  (1) 
MOL_0_isomer_0

$$$$
