MOL_0_isomer_0_conf_0
     RDKit          3D

 24 24  0  0  0  0  0  0  0  0999 V2000
    1.2311    0.7539    2.3762 O   0  0  0  0  0  0  0  0  0  0  0  0
    0.9751    0.0959    1.1475 C   0  0  0  0  0  0  0  0  0  0  0  0
    2.1540    0.3238    0.1922 C   0  0  1  0  0  0  0  0  0  0  0  0
    1.8742   -0.2742   -1.1905 C   0  0  0  0  0  0  0  0  0  0  0  0
    0.9860    0.6132   -2.0003 N   0  0  0  0  0  4  0  0  0  0  0  0
    1.5545    1.9933   -2.1931 C   0  0  0  0  0  0  0  0  0  0  0  0
    1.6628    2.6392   -0.8096 C   0  0  1  0  0  0  0  0  0  0  0  0
    0.3421    2.6948   -0.2595 O   0  0  0  0  0  0  0  0  0  0  0  0
    2.5935    1.7993    0.0823 C   0  0  2  0  0  0  0  0  0  0  0  0
    3.8986    1.8278   -0.5044 O   0  0  0  0  0  0  0  0  0  0  0  0
    0.5600    0.4617    3.0224 H   0  0  0  0  0  0  0  0  0  0  0  0
    0.8609   -0.9756    1.3468 H   0  0  0  0  0  0  0  0  0  0  0  0
    0.0265    0.4615    0.7468 H   0  0  0  0  0  0  0  0  0  0  0  0
    3.0043   -0.2308    0.6148 H   0  0  0  0  0  0  0  0  0  0  0  0
    1.3747   -1.2460   -1.1238 H   0  0  0  0  0  0  0  0  0  0  0  0
    2.7980   -0.4005   -1.7658 H   0  0  0  0  0  0  0  0  0  0  0  0
    0.0717    0.7446   -1.5385 H   0  0  0  0  0  0  0  0  0  0  0  0
    0.7951    0.1916   -2.9179 H   0  0  0  0  0  0  0  0  0  0  0  0
    0.8355    2.5235   -2.8252 H   0  0  0  0  0  0  0  0  0  0  0  0
    2.5099    1.8973   -2.7174 H   0  0  0  0  0  0  0  0  0  0  0  0
    2.0437    3.6604   -0.9213 H   0  0  0  0  0  0  0  0  0  0  0  0
    0.3939    3.2168    0.5679 H   0  0  0  0  0  0  0  0  0  0  0  0
    2.6638    2.2640    1.0718 H   0  0  0  0  0  0  0  0  0  0  0  0
    4.5501    1.7452    0.2215 H   0  0  0  0  0  0  0  0  0  0  0  0
 11  1  1  0
  1  2  1  0
  2 12  1  0
  2 13  1  0
  2  3  1  0
  3 14  1  1
  3  4  1  0
  4 15  1  0
  4 16  1  0
  4  5  1  0
  5 17  1  0
  5 18  1  0
  5  6  1  0
  6 19  1  0
  6 20  1  0
  6  7  1  0
  7 21  1  6
  7  8  1  0
  8 22  1  0
  3  9  1  0
  7  9  1  0
  9 23  1  1
  9 10  1  0
 10 24  1  0
M  CHG  1   5   1
M  END
>  <conformer_energy>  (1) 
35.85

>  <ligand_smiles>  (1) 
OC[C@H]1C[NH2+]C[C@@H](O)[C@@H]1O

>  <ligand_conf_name>  (1) 
MOL_0_isomer_0_conf_0

>  <ligand_molecule_name>  (1) 
MOL_0_isomer_0

$$$$
