MOL_0_isomer_0_conf_0
     RDKit          3D

 53 55  0  0  0  0  0  0  0  0999 V2000
    4.1702    0.0401   -3.0681 O   0  0  0  0  0  0  0  0  0  0  0  0
    3.6461    0.4528   -1.7928 C   0  0  1  0  0  0  0  0  0  0  0  0
    3.2685    1.9232   -1.9056 C   0  0  1  0  0  0  0  0  0  0  0  0
    4.2645    2.6502   -2.6231 O   0  0  0  0  0  0  0  0  0  0  0  0
    1.9169    1.8305   -2.6222 C   0  0  2  0  0  0  0  0  0  0  0  0
    1.0093    2.9130   -2.3038 N   0  0  0  0  0  0  0  0  0  0  0  0
    0.0872    2.9503   -1.2895 C   0  0  0  0  0  0  0  0  0  0  0  0
   -0.5813    4.0832   -1.2642 N   0  0  0  0  0  0  0  0  0  0  0  0
   -0.0558    4.8189   -2.3110 C   0  0  0  0  0  0  0  0  0  0  0  0
   -0.3311    6.1078   -2.7982 C   0  0  0  0  0  0  0  0  0  0  0  0
   -1.2739    6.9374   -2.2356 N   0  0  0  0  0  0  0  0  0  0  0  0
    0.3629    6.5560   -3.8714 N   0  0  0  0  0  0  0  0  0  0  0  0
    1.2849    5.7379   -4.4280 C   0  0  0  0  0  0  0  0  0  0  0  0
    1.6254    4.4871   -4.0581 N   0  0  0  0  0  0  0  0  0  0  0  0
    0.9192    4.0970   -2.9822 C   0  0  0  0  0  0  0  0  0  0  0  0
    1.3097    0.5819   -2.2169 O   0  0  0  0  0  0  0  0  0  0  0  0
    2.3024   -0.2108   -1.5144 C   0  0  2  0  0  0  0  0  0  0  0  0
    1.9793   -0.2329   -0.0186 C   0  0  0  0  0  0  0  0  0  0  0  0
    0.7228   -0.8723    0.1705 O   0  0  0  0  0  0  0  0  0  0  0  0
   -0.0303   -0.6440    1.5951 S   0  0  0  0  0  6  0  0  0  0  0  0
    0.9856   -0.9045    2.5974 O   0  0  0  0  0  0  0  0  0  0  0  0
   -0.4701    0.7512    1.5196 O   0  0  0  0  0  0  0  0  0  0  0  0
   -1.1911   -1.7209    1.4708 N   0  0  0  0  0  2  0  0  0  0  0  0
   -2.3724   -1.2487    1.8589 C   0  0  0  0  0  0  0  0  0  0  0  0
   -2.9059   -1.4242    2.9531 O   0  0  0  0  0  0  0  0  0  0  0  0
   -3.0095   -0.2932    0.8268 C   0  0  1  0  0  0  0  0  0  0  0  0
   -4.4450   -0.6608    0.3953 C   0  0  0  0  0  0  0  0  0  0  0  0
   -5.4886   -0.6794    1.5228 C   0  0  0  0  0  0  0  0  0  0  0  0
   -4.4569   -2.0003   -0.3508 C   0  0  0  0  0  0  0  0  0  0  0  0
   -2.9976    1.0583    1.4579 N   0  0  0  0  0  4  0  0  0  0  0  0
    4.2984   -0.9257   -3.0323 H   0  0  0  0  0  0  0  0  0  0  0  0
    4.4168    0.2597   -1.0389 H   0  0  0  0  0  0  0  0  0  0  0  0
    3.1635    2.3738   -0.9123 H   0  0  0  0  0  0  0  0  0  0  0  0
    4.5780    2.0455   -3.3300 H   0  0  0  0  0  0  0  0  0  0  0  0
    2.0326    1.8068   -3.7120 H   0  0  0  0  0  0  0  0  0  0  0  0
   -0.0551    2.1238   -0.6042 H   0  0  0  0  0  0  0  0  0  0  0  0
   -1.3839    7.8634   -2.6254 H   0  0  0  0  0  0  0  0  0  0  0  0
   -1.7532    6.6391   -1.3967 H   0  0  0  0  0  0  0  0  0  0  0  0
    1.8173    6.1452   -5.2854 H   0  0  0  0  0  0  0  0  0  0  0  0
    2.2444   -1.2225   -1.9274 H   0  0  0  0  0  0  0  0  0  0  0  0
    1.9335    0.7845    0.3812 H   0  0  0  0  0  0  0  0  0  0  0  0
    2.7482   -0.7941    0.5257 H   0  0  0  0  0  0  0  0  0  0  0  0
   -2.3932   -0.2033   -0.0755 H   0  0  0  0  0  0  0  0  0  0  0  0
   -4.7717    0.1089   -0.3254 H   0  0  0  0  0  0  0  0  0  0  0  0
   -5.3467   -1.5270    2.2043 H   0  0  0  0  0  0  0  0  0  0  0  0
   -5.4781    0.2442    2.1086 H   0  0  0  0  0  0  0  0  0  0  0  0
   -6.4948   -0.7684    1.0927 H   0  0  0  0  0  0  0  0  0  0  0  0
   -5.4423   -2.1804   -0.7877 H   0  0  0  0  0  0  0  0  0  0  0  0
   -3.7281   -2.0024   -1.1661 H   0  0  0  0  0  0  0  0  0  0  0  0
   -4.2247   -2.8388    0.3150 H   0  0  0  0  0  0  0  0  0  0  0  0
   -3.3340    0.9771    2.4293 H   0  0  0  0  0  0  0  0  0  0  0  0
   -3.4764    1.7910    0.9416 H   0  0  0  0  0  0  0  0  0  0  0  0
   -1.9884    1.3138    1.5515 H   0  0  0  0  0  0  0  0  0  0  0  0
 31  1  1  0
  1  2  1  0
  2 32  1  1
  2  3  1  0
  3 33  1  1
  3  4  1  0
  4 34  1  0
  3  5  1  0
  5 35  1  6
  5  6  1  0
  6  7  1  0
  7 36  1  0
  7  8  2  0
  8  9  1  0
  9 10  1  0
 10 11  1  0
 11 37  1  0
 11 38  1  0
 10 12  2  0
 12 13  1  0
 13 39  1  0
 13 14  2  0
  9 15  2  0
  6 15  1  0
 14 15  1  0
  5 16  1  0
  2 17  1  0
 16 17  1  0
 17 40  1  6
 17 18  1  0
 18 41  1  0
 18 42  1  0
 18 19  1  0
 19 20  1  0
 20 21  2  0
 20 22  2  0
 20 23  1  0
 23 24  1  0
 24 25  2  0
 24 26  1  0
 26 43  1  6
 26 27  1  0
 27 44  1  0
 27 28  1  0
 28 45  1  0
 28 46  1  0
 28 47  1  0
 27 29  1  0
 29 48  1  0
 29 49  1  0
 29 50  1  0
 26 30  1  0
 30 51  1  0
 30 52  1  0
 30 53  1  0
M  CHG  2  23  -1  30   1
M  END
>  <conformer_energy>  (1) 
-25.32

>  <ligand_smiles>  (1) 
CC(C)[C@@H]([NH3+])C(=O)[N-]S(=O)(=O)OC[C@H]1O[C@@H](n2cnc3c(N)ncnc32)[C@H](O)[C@@H]1O

>  <ligand_conf_name>  (1) 
MOL_0_isomer_0_conf_0

>  <ligand_molecule_name>  (1) 
MOL_0_isomer_0

$$$$
