MOL_0_isomer_0_conf_0
     RDKit          3D

 12 12  0  0  0  0  0  0  0  0999 V2000
   11.0533  -41.1038   11.2878 C   0  0  0  0  0  0  0  0  0  0  0  0
   12.1695  -41.8249   10.8907 C   0  0  0  0  0  0  0  0  0  0  0  0
   12.2901  -42.1810    9.5530 C   0  0  0  0  0  0  0  0  0  0  0  0
   13.6800  -43.0794    9.0564 Cl  0  0  0  0  0  0  0  0  0  0  0  0
   11.3001  -41.8165    8.6249 C   0  0  0  0  0  0  0  0  0  0  0  0
   11.4795  -42.1943    7.3419 F   0  0  0  0  0  0  0  0  0  0  0  0
   10.1383  -41.0798    8.9738 C   0  0  0  0  0  0  0  0  0  0  0  0
    9.2352  -40.7468    8.1291 O   0  0  0  0  0  1  0  0  0  0  0  0
   10.0741  -40.7476   10.3496 C   0  0  0  0  0  0  0  0  0  0  0  0
    9.0258  -40.0482   10.8257 F   0  0  0  0  0  0  0  0  0  0  0  0
   10.9177  -40.8047   12.3209 H   0  0  0  0  0  0  0  0  0  0  0  0
   12.9280  -42.1017   11.6137 H   0  0  0  0  0  0  0  0  0  0  0  0
 11  1  1  0
  1  2  2  0
  2 12  1  0
  2  3  1  0
  3  4  1  0
  3  5  2  0
  5  6  1  0
  5  7  1  0
  7  8  1  0
  1  9  1  0
  7  9  2  0
  9 10  1  0
M  CHG  1   8  -1
M  END
>  <conformer_energy>  (1) 
53.31

>  <ligand_smiles>  (1) 
[O-]c1c(F)ccc(Cl)c1F

>  <ligand_conf_name>  (1) 
MOL_0_isomer_0_conf_0

>  <ligand_molecule_name>  (1) 
MOL_0_isomer_0

$$$$
