MOL_0_isomer_0_conf_0
     RDKit          3D

 15 16  0  0  0  0  0  0  0  0999 V2000
    3.3661   -0.0170   -1.2298 C   0  0  0  0  0  0  0  0  0  0  0  0
    2.0165   -0.0290   -1.1917 N   0  0  0  0  0  0  0  0  0  0  0  0
    1.4037   -0.0250    0.0117 C   0  0  0  0  0  0  0  0  0  0  0  0
    0.0308   -0.0374    0.0234 N   0  0  0  0  0  0  0  0  0  0  0  0
    2.1993   -0.0088    1.1588 C   0  0  0  0  0  0  0  0  0  0  0  0
    2.0406    0.0008    2.5599 C   0  0  0  0  0  0  0  0  0  0  0  0
    3.2072    0.0166    3.2178 N   0  0  0  0  0  0  0  0  0  0  0  0
    4.1196    0.0170    2.2214 N   0  0  0  0  0  0  0  0  0  0  0  0
    3.5686    0.0022    0.9731 C   0  0  0  0  0  0  0  0  0  0  0  0
    4.2276   -0.0010   -0.1957 N   0  0  0  0  0  0  0  0  0  0  0  0
    3.8107   -0.0208   -2.2207 H   0  0  0  0  0  0  0  0  0  0  0  0
   -0.5045   -0.0356    0.8748 H   0  0  0  0  0  0  0  0  0  0  0  0
   -0.4267   -0.0487   -0.8770 H   0  0  0  0  0  0  0  0  0  0  0  0
    1.1210   -0.0030    3.1301 H   0  0  0  0  0  0  0  0  0  0  0  0
    5.1053    0.0278    2.4522 H   0  0  0  0  0  0  0  0  0  0  0  0
 11  1  1  0
  1  2  2  0
  2  3  1  0
  3  4  1  0
  4 12  1  0
  4 13  1  0
  3  5  2  0
  5  6  1  0
  6 14  1  0
  6  7  2  0
  7  8  1  0
  8 15  1  0
  5  9  1  0
  8  9  1  0
  1 10  1  0
  9 10  2  0
M  END
>  <conformer_energy>  (1) 
-19.96

>  <ligand_smiles>  (1) 
Nc1ncnc2[nH]ncc12

>  <ligand_conf_name>  (1) 
MOL_0_isomer_0_conf_0

>  <ligand_molecule_name>  (1) 
MOL_0_isomer_0

$$$$
