MOL_0_isomer_0_conf_0
     RDKit          3D

 44 47  0  0  0  0  0  0  0  0999 V2000
    8.6176   -3.9322    1.5164 C   0  0  0  0  0  0  0  0  0  0  0  0
    7.8147   -2.9319    1.3235 N   0  0  0  0  0  0  0  0  0  0  0  0
    7.6856   -2.0444    2.3606 C   0  0  0  0  0  0  0  0  0  0  0  0
    6.9281   -0.8945    2.4821 C   0  0  0  0  0  0  0  0  0  0  0  0
    6.0388   -0.3903    1.4494 C   0  0  0  0  0  0  0  0  0  0  0  0
    4.6570   -0.4615    1.6819 C   0  0  0  0  0  0  0  0  0  0  0  0
    3.7495    0.0004    0.7236 C   0  0  0  0  0  0  0  0  0  0  0  0
    2.2967   -0.1019    1.0206 C   0  0  0  0  0  0  0  0  0  0  0  0
    1.8996   -0.0020    2.1766 O   0  0  0  0  0  0  0  0  0  0  0  0
    1.4744   -0.3409   -0.0644 N   0  0  0  0  0  0  0  0  0  0  0  0
    0.0560   -0.4384    0.0658 C   0  0  0  0  0  0  0  0  0  0  0  0
   -0.8281   -0.4447   -1.1512 C   0  0  0  0  0  0  0  0  0  0  0  0
   -0.8186    0.7458   -0.2383 C   0  0  0  0  0  0  0  0  0  0  0  0
    4.2211    0.5642   -0.4652 C   0  0  0  0  0  0  0  0  0  0  0  0
    5.5959    0.6476   -0.6978 C   0  0  0  0  0  0  0  0  0  0  0  0
    6.5192    0.1835    0.2549 C   0  0  0  0  0  0  0  0  0  0  0  0
    7.9895    0.2901   -0.0501 C   0  0  0  0  0  0  0  0  0  0  0  0
    7.1454   -0.3769    3.7814 C   0  0  0  0  0  0  0  0  0  0  0  0
    8.0559   -1.1920    4.4406 C   0  0  0  0  0  0  0  0  0  0  0  0
    8.5803   -1.0346    5.7901 C   0  0  0  0  0  0  0  0  0  0  0  0
    9.4123   -1.7898    6.2920 O   0  0  0  0  0  0  0  0  0  0  0  0
    8.0605    0.1325    6.5979 C   0  0  0  0  0  0  0  0  0  0  0  0
    8.3824   -2.2191    3.5614 N   0  0  0  0  0  0  0  0  0  0  0  0
    9.2406   -3.3079    3.7295 C   0  0  0  0  0  0  0  0  0  0  0  0
    9.4040   -4.2008    2.7450 C   0  0  0  0  0  0  0  0  0  0  0  0
    8.7490   -4.6697    0.7073 H   0  0  0  0  0  0  0  0  0  0  0  0
    4.2814   -0.8955    2.6074 H   0  0  0  0  0  0  0  0  0  0  0  0
    1.8866   -0.5271   -0.9691 H   0  0  0  0  0  0  0  0  0  0  0  0
   -0.2523   -1.0729    0.8949 H   0  0  0  0  0  0  0  0  0  0  0  0
   -0.3762   -0.3338   -2.1291 H   0  0  0  0  0  0  0  0  0  0  0  0
   -1.7007   -1.0878   -1.1358 H   0  0  0  0  0  0  0  0  0  0  0  0
   -1.6769    0.9095    0.4030 H   0  0  0  0  0  0  0  0  0  0  0  0
   -0.3456    1.6567   -0.5851 H   0  0  0  0  0  0  0  0  0  0  0  0
    3.5378    0.9681   -1.2066 H   0  0  0  0  0  0  0  0  0  0  0  0
    5.9480    1.0894   -1.6282 H   0  0  0  0  0  0  0  0  0  0  0  0
    8.1745    1.0195   -0.8464 H   0  0  0  0  0  0  0  0  0  0  0  0
    8.3798   -0.6766   -0.3813 H   0  0  0  0  0  0  0  0  0  0  0  0
    8.5511    0.6336    0.8244 H   0  0  0  0  0  0  0  0  0  0  0  0
    6.6783    0.5133    4.1852 H   0  0  0  0  0  0  0  0  0  0  0  0
    8.3191    1.0748    6.1074 H   0  0  0  0  0  0  0  0  0  0  0  0
    8.5221    0.1237    7.5901 H   0  0  0  0  0  0  0  0  0  0  0  0
    6.9774    0.0514    6.7237 H   0  0  0  0  0  0  0  0  0  0  0  0
    9.7620   -3.4074    4.6723 H   0  0  0  0  0  0  0  0  0  0  0  0
   10.0462   -5.0667    2.8005 H   0  0  0  0  0  0  0  0  0  0  0  0
 26  1  1  0
  1  2  2  0
  2  3  1  0
  3  4  2  0
  4  5  1  0
  5  6  2  0
  6 27  1  0
  6  7  1  0
  7  8  1  0
  8  9  2  0
  8 10  1  0
 10 28  1  0
 10 11  1  0
 11 29  1  0
 11 12  1  0
 12 30  1  0
 12 31  1  0
 11 13  1  0
 12 13  1  0
 13 32  1  0
 13 33  1  0
  7 14  2  0
 14 34  1  0
 14 15  1  0
 15 35  1  0
  5 16  1  0
 15 16  2  0
 16 17  1  0
 17 36  1  0
 17 37  1  0
 17 38  1  0
  4 18  1  0
 18 39  1  0
 18 19  2  0
 19 20  1  0
 20 21  2  0
 20 22  1  0
 22 40  1  0
 22 41  1  0
 22 42  1  0
  3 23  1  0
 19 23  1  0
 23 24  1  0
 24 43  1  0
  1 25  1  0
 24 25  2  0
 25 44  1  0
M  END
>  <conformer_energy>  (1) 
63.54

>  <ligand_smiles>  (1) 
CC(=O)c1cc(-c2cc(C(=O)NC3CC3)ccc2C)c2ncccn12

>  <ligand_conf_name>  (1) 
MOL_0_isomer_0_conf_0

>  <ligand_molecule_name>  (1) 
MOL_0_isomer_0

$$$$
