MOL_0_isomer_0_conf_0
     RDKit          3D

 44 45  0  0  0  0  0  0  0  0999 V2000
    1.5066    1.7732   -1.4883 O   0  0  0  0  0  0  0  0  0  0  0  0
    0.1835    1.4811   -1.6964 C   0  0  0  0  0  0  0  0  0  0  0  0
   -0.5132    2.1682   -2.6935 C   0  0  0  0  0  0  0  0  0  0  0  0
   -1.8651    1.9230   -3.0045 C   0  0  0  0  0  0  0  0  0  0  0  0
   -2.4386    2.6052   -3.9220 O   0  0  0  0  0  1  0  0  0  0  0  0
   -2.4809    0.8942   -2.2270 C   0  0  0  0  0  0  0  0  0  0  0  0
   -4.1593    0.4810   -2.5560 Cl  0  0  0  0  0  0  0  0  0  0  0  0
   -1.8102    0.1938   -1.1862 C   0  0  0  0  0  0  0  0  0  0  0  0
   -0.4608    0.5090   -0.9358 C   0  0  0  0  0  0  0  0  0  0  0  0
    0.3014   -0.1889    0.1189 C   0  0  0  0  0  0  0  0  0  0  0  0
    0.5328   -1.3867    0.1222 O   0  0  0  0  0  0  0  0  0  0  0  0
    0.6061    0.6976    1.1055 O   0  0  0  0  0  0  0  0  0  0  0  0
    1.3306    0.1548    2.2201 C   0  0  0  0  0  0  0  0  0  0  0  0
    0.4557    0.1137    3.4762 C   0  0  0  0  0  0  0  0  0  0  0  0
   -0.8162   -0.6618    3.2808 C   0  0  0  0  0  0  0  0  0  0  0  0
   -0.9570   -1.9775    3.5065 C   0  0  0  0  0  0  0  0  0  0  0  0
   -2.2240   -2.7234    3.1940 C   0  0  0  0  0  0  0  0  0  0  0  0
   -2.0301   -3.6725    2.0043 C   0  0  0  0  0  0  0  0  0  0  0  0
   -3.3469   -4.2397    1.4640 C   0  0  0  0  0  0  0  0  0  0  0  0
   -4.2555   -3.2331    0.7417 C   0  0  0  0  0  0  0  0  0  0  0  0
   -3.9211   -3.0024   -0.7327 C   0  0  0  0  0  0  0  0  0  0  0  0
   -2.6547   -2.2099   -1.0077 C   0  0  0  0  0  0  0  0  0  0  0  0
   -1.7801   -2.6959   -1.7269 O   0  0  0  0  0  0  0  0  0  0  0  0
   -2.5358   -0.8417   -0.3572 C   0  0  0  0  0  0  0  0  0  0  0  0
    1.7579    2.4255   -2.1640 H   0  0  0  0  0  0  0  0  0  0  0  0
   -0.0062    2.9370   -3.2762 H   0  0  0  0  0  0  0  0  0  0  0  0
    2.1809    0.8220    2.4001 H   0  0  0  0  0  0  0  0  0  0  0  0
    1.7517   -0.8355    2.0102 H   0  0  0  0  0  0  0  0  0  0  0  0
    0.1796    1.1362    3.7616 H   0  0  0  0  0  0  0  0  0  0  0  0
    1.0342   -0.3020    4.3095 H   0  0  0  0  0  0  0  0  0  0  0  0
   -1.6498   -0.0916    2.8743 H   0  0  0  0  0  0  0  0  0  0  0  0
   -0.1172   -2.5602    3.8773 H   0  0  0  0  0  0  0  0  0  0  0  0
   -3.0312   -2.0108    2.9966 H   0  0  0  0  0  0  0  0  0  0  0  0
   -2.5272   -3.2957    4.0787 H   0  0  0  0  0  0  0  0  0  0  0  0
   -1.4042   -4.5127    2.3333 H   0  0  0  0  0  0  0  0  0  0  0  0
   -1.4733   -3.1848    1.1993 H   0  0  0  0  0  0  0  0  0  0  0  0
   -3.9055   -4.6663    2.3069 H   0  0  0  0  0  0  0  0  0  0  0  0
   -3.1251   -5.0758    0.7896 H   0  0  0  0  0  0  0  0  0  0  0  0
   -4.3031   -2.2833    1.2810 H   0  0  0  0  0  0  0  0  0  0  0  0
   -5.2734   -3.6440    0.7710 H   0  0  0  0  0  0  0  0  0  0  0  0
   -4.7446   -2.4567   -1.2086 H   0  0  0  0  0  0  0  0  0  0  0  0
   -3.8458   -3.9652   -1.2521 H   0  0  0  0  0  0  0  0  0  0  0  0
   -3.5359   -0.4677   -0.1102 H   0  0  0  0  0  0  0  0  0  0  0  0
   -2.0566   -0.9769    0.6139 H   0  0  0  0  0  0  0  0  0  0  0  0
 25  1  1  0
  1  2  1  0
  2  3  2  0
  3 26  1  0
  3  4  1  0
  4  5  1  0
  4  6  2  0
  6  7  1  0
  6  8  1  0
  2  9  1  0
  8  9  2  0
  9 10  1  0
 10 11  2  0
 10 12  1  0
 12 13  1  0
 13 27  1  0
 13 28  1  0
 13 14  1  0
 14 29  1  0
 14 30  1  0
 14 15  1  0
 15 31  1  0
 15 16  2  0
 16 32  1  0
 16 17  1  0
 17 33  1  0
 17 34  1  0
 17 18  1  0
 18 35  1  0
 18 36  1  0
 18 19  1  0
 19 37  1  0
 19 38  1  0
 19 20  1  0
 20 39  1  0
 20 40  1  0
 20 21  1  0
 21 41  1  0
 21 42  1  0
 21 22  1  0
 22 23  2  0
  8 24  1  0
 22 24  1  0
 24 43  1  0
 24 44  1  0
M  CHG  1   5  -1
M  END
>  <conformer_energy>  (1) 
62.17

>  <ligand_smiles>  (1) 
O=C1CCCCC/C=C/CCOC(=O)c2c(O)cc([O-])c(Cl)c2C1

>  <ligand_conf_name>  (1) 
MOL_0_isomer_0_conf_0

>  <ligand_molecule_name>  (1) 
MOL_0_isomer_0

$$$$
