MOL_0_isomer_0_conf_0
     RDKit          3D

 48 50  0  0  0  0  0  0  0  0999 V2000
    6.9754    1.1590    0.2926 C   0  0  0  0  0  0  0  0  0  0  0  0
    7.6327    1.2242    1.4717 N   0  0  0  0  0  0  0  0  0  0  0  0
    8.0225    0.0442    2.0332 C   0  0  0  0  0  0  0  0  0  0  0  0
    8.7073    0.1094    3.3657 C   0  0  0  0  0  0  0  0  0  0  0  0
    9.1647   -0.9066    3.8805 O   0  0  0  0  0  0  0  0  0  0  0  0
    8.7378    1.3537    3.9311 N   0  0  0  0  0  0  0  0  0  0  0  0
    9.2832    1.6681    5.2523 C   0  0  0  0  0  0  0  0  0  0  0  0
    8.9816    3.1147    5.7238 C   0  0  0  0  0  0  0  0  0  0  0  0
    9.4167    3.4127    6.8721 O   0  0  0  0  0  0  0  0  0  0  0  0
    8.3294    3.8221    4.8956 O   0  0  0  0  0  1  0  0  0  0  0  0
    7.7844   -1.1951    1.4451 C   0  0  0  0  0  0  0  0  0  0  0  0
    7.0865   -1.2352    0.2399 C   0  0  0  0  0  0  0  0  0  0  0  0
    6.6531   -0.0358   -0.3248 C   0  0  0  0  0  0  0  0  0  0  0  0
    5.7366   -0.0121   -1.8292 S   0  0  0  0  0  6  0  0  0  0  0  0
    5.9688   -1.2750   -2.4994 O   0  0  0  0  0  0  0  0  0  0  0  0
    6.0118    1.2419   -2.4967 O   0  0  0  0  0  0  0  0  0  0  0  0
    4.1116    0.0076   -1.3016 N   0  0  0  0  0  0  0  0  0  0  0  0
    3.6409    1.2566   -0.6501 C   0  0  0  0  0  0  0  0  0  0  0  0
    2.1147    1.2901   -0.6707 C   0  0  0  0  0  0  0  0  0  0  0  0
    1.5324    0.0429    0.0128 C   0  0  0  0  0  0  0  0  0  0  0  0
    0.0132    0.0512    0.0105 C   0  0  0  0  0  0  0  0  0  0  0  0
   -0.6844    0.0954    1.2281 C   0  0  0  0  0  0  0  0  0  0  0  0
   -2.0816    0.1039    1.2500 C   0  0  0  0  0  0  0  0  0  0  0  0
   -2.7929    0.0689    0.0540 C   0  0  0  0  0  0  0  0  0  0  0  0
   -4.5135    0.0777    0.0801 Cl  0  0  0  0  0  0  0  0  0  0  0  0
   -2.1193    0.0268   -1.1636 C   0  0  0  0  0  0  0  0  0  0  0  0
   -0.7223    0.0185   -1.1850 C   0  0  0  0  0  0  0  0  0  0  0  0
    2.1026   -1.2326   -0.6282 C   0  0  0  0  0  0  0  0  0  0  0  0
    3.6289   -1.2141   -0.6117 C   0  0  0  0  0  0  0  0  0  0  0  0
    6.7005    2.1230   -0.1282 H   0  0  0  0  0  0  0  0  0  0  0  0
    8.3163    2.1509    3.4512 H   0  0  0  0  0  0  0  0  0  0  0  0
    8.8676    0.9528    5.9698 H   0  0  0  0  0  0  0  0  0  0  0  0
   10.3669    1.5188    5.2038 H   0  0  0  0  0  0  0  0  0  0  0  0
    8.1250   -2.1066    1.9269 H   0  0  0  0  0  0  0  0  0  0  0  0
    6.8824   -2.1892   -0.2390 H   0  0  0  0  0  0  0  0  0  0  0  0
    4.0114    2.1347   -1.1881 H   0  0  0  0  0  0  0  0  0  0  0  0
    4.0045    1.3051    0.3821 H   0  0  0  0  0  0  0  0  0  0  0  0
    1.7729    1.3535   -1.7118 H   0  0  0  0  0  0  0  0  0  0  0  0
    1.7619    2.1979   -0.1660 H   0  0  0  0  0  0  0  0  0  0  0  0
    1.8700    0.0581    1.0592 H   0  0  0  0  0  0  0  0  0  0  0  0
   -0.1453    0.1258    2.1732 H   0  0  0  0  0  0  0  0  0  0  0  0
   -2.6045    0.1394    2.2019 H   0  0  0  0  0  0  0  0  0  0  0  0
   -2.6720    0.0014   -2.0986 H   0  0  0  0  0  0  0  0  0  0  0  0
   -0.2138   -0.0121   -2.1465 H   0  0  0  0  0  0  0  0  0  0  0  0
    1.7416   -2.1191   -0.0924 H   0  0  0  0  0  0  0  0  0  0  0  0
    1.7595   -1.3289   -1.6662 H   0  0  0  0  0  0  0  0  0  0  0  0
    3.9959   -1.2348    0.4206 H   0  0  0  0  0  0  0  0  0  0  0  0
    3.9890   -2.1129   -1.1221 H   0  0  0  0  0  0  0  0  0  0  0  0
 30  1  1  0
  1  2  2  0
  2  3  1  0
  3  4  1  0
  4  5  2  0
  4  6  1  0
  6 31  1  0
  6  7  1  0
  7 32  1  0
  7 33  1  0
  7  8  1  0
  8  9  2  0
  8 10  1  0
  3 11  2  0
 11 34  1  0
 11 12  1  0
 12 35  1  0
  1 13  1  0
 12 13  2  0
 13 14  1  0
 14 15  2  0
 14 16  2  0
 14 17  1  0
 17 18  1  0
 18 36  1  0
 18 37  1  0
 18 19  1  0
 19 38  1  0
 19 39  1  0
 19 20  1  0
 20 40  1  0
 20 21  1  0
 21 22  2  0
 22 41  1  0
 22 23  1  0
 23 42  1  0
 23 24  2  0
 24 25  1  0
 24 26  1  0
 26 43  1  0
 21 27  1  0
 26 27  2  0
 27 44  1  0
 20 28  1  0
 28 45  1  0
 28 46  1  0
 17 29  1  0
 28 29  1  0
 29 47  1  0
 29 48  1  0
M  CHG  1  10  -1
M  END
>  <conformer_energy>  (1) 
51.99

>  <ligand_smiles>  (1) 
O=C([O-])CNC(=O)c1ccc(S(=O)(=O)N2CCC(c3ccc(Cl)cc3)CC2)cn1

>  <ligand_conf_name>  (1) 
MOL_0_isomer_0_conf_0

>  <ligand_molecule_name>  (1) 
MOL_0_isomer_0

$$$$
