MOL_0_isomer_0_conf_0
     RDKit          3D

 44 45  0  0  0  0  0  0  0  0999 V2000
    3.7929    6.0088   -3.6946 O   0  0  0  0  0  0  0  0  0  0  0  0
    3.0991    4.9416   -3.0588 C   0  0  0  0  0  0  0  0  0  0  0  0
    3.9452    3.6622   -2.9964 C   0  0  1  0  0  0  0  0  0  0  0  0
    3.2773    2.6991   -2.1733 O   0  0  0  0  0  0  0  0  0  0  0  0
    4.0501    1.5099   -1.9642 C   0  0  1  0  0  0  0  0  0  0  0  0
    3.3131    0.6170   -1.0549 N   0  0  0  0  0  0  0  0  0  0  0  0
    1.9314    0.6643   -0.9608 C   0  0  0  0  0  0  0  0  0  0  0  0
    1.2291   -0.1344   -0.1460 C   0  0  0  0  0  0  0  0  0  0  0  0
   -0.1891   -0.0508   -0.0796 C   0  0  0  0  0  0  0  0  0  0  0  0
   -1.3870    0.0215   -0.0267 C   0  0  0  0  0  0  0  0  0  0  0  0
   -2.8525    0.1009    0.0499 C   0  0  0  0  0  0  0  0  0  0  0  0
   -3.4904   -0.1986   -1.3053 C   0  0  0  0  0  0  0  0  0  0  0  0
   -5.0072   -0.1187   -1.2378 C   0  0  0  0  0  0  0  0  0  0  0  0
    1.9850   -1.1095    0.6847 C   0  0  0  0  0  0  0  0  0  0  0  0
    1.4418   -1.8825    1.4673 O   0  0  0  0  0  0  0  0  0  0  0  0
    3.3437   -1.1065    0.5199 N   0  0  0  0  0  0  0  0  0  0  0  0
    4.0499   -0.3075   -0.3329 C   0  0  0  0  0  0  0  0  0  0  0  0
    5.2661   -0.4396   -0.4657 O   0  0  0  0  0  0  0  0  0  0  0  0
    4.3825    0.8066   -3.3096 C   0  0  2  0  0  0  0  0  0  0  0  0
    5.3015   -0.2951   -3.2095 O   0  0  0  0  0  0  0  0  0  0  0  0
    5.0114    1.8100   -4.2809 C   0  0  1  0  0  0  0  0  0  0  0  0
    5.1463    1.2230   -5.5851 O   0  0  0  0  0  0  0  0  0  0  0  0
    4.1712    3.0793   -4.3981 C   0  0  2  0  0  0  0  0  0  0  0  0
    4.8361    4.0165   -5.2516 O   0  0  0  0  0  0  0  0  0  0  0  0
    4.2171    5.6366   -4.4980 H   0  0  0  0  0  0  0  0  0  0  0  0
    2.8313    5.2663   -2.0477 H   0  0  0  0  0  0  0  0  0  0  0  0
    2.1584    4.7642   -3.5917 H   0  0  0  0  0  0  0  0  0  0  0  0
    4.9113    3.9255   -2.5444 H   0  0  0  0  0  0  0  0  0  0  0  0
    4.9848    1.7896   -1.4594 H   0  0  0  0  0  0  0  0  0  0  0  0
    1.4202    1.3939   -1.5844 H   0  0  0  0  0  0  0  0  0  0  0  0
   -3.1471    1.1018    0.3867 H   0  0  0  0  0  0  0  0  0  0  0  0
   -3.2186   -0.6110    0.7990 H   0  0  0  0  0  0  0  0  0  0  0  0
   -3.1972   -1.1995   -1.6460 H   0  0  0  0  0  0  0  0  0  0  0  0
   -3.1254    0.5112   -2.0580 H   0  0  0  0  0  0  0  0  0  0  0  0
   -5.4422   -0.3372   -2.2182 H   0  0  0  0  0  0  0  0  0  0  0  0
   -5.3342    0.8816   -0.9364 H   0  0  0  0  0  0  0  0  0  0  0  0
   -5.4067   -0.8423   -0.5200 H   0  0  0  0  0  0  0  0  0  0  0  0
    3.8648   -1.7777    1.0629 H   0  0  0  0  0  0  0  0  0  0  0  0
    3.4648    0.4032   -3.7551 H   0  0  0  0  0  0  0  0  0  0  0  0
    5.5363   -0.4376   -2.2669 H   0  0  0  0  0  0  0  0  0  0  0  0
    6.0324    2.0594   -3.9651 H   0  0  0  0  0  0  0  0  0  0  0  0
    5.5256    0.3333   -5.4266 H   0  0  0  0  0  0  0  0  0  0  0  0
    3.2114    2.8369   -4.8717 H   0  0  0  0  0  0  0  0  0  0  0  0
    5.1250    3.4905   -6.0282 H   0  0  0  0  0  0  0  0  0  0  0  0
 25  1  1  0
  1  2  1  0
  2 26  1  0
  2 27  1  0
  2  3  1  0
  3 28  1  1
  3  4  1  0
  4  5  1  0
  5 29  1  1
  5  6  1  0
  6  7  1  0
  7 30  1  0
  7  8  2  0
  8  9  1  0
  9 10  3  0
 10 11  1  0
 11 31  1  0
 11 32  1  0
 11 12  1  0
 12 33  1  0
 12 34  1  0
 12 13  1  0
 13 35  1  0
 13 36  1  0
 13 37  1  0
  8 14  1  0
 14 15  2  0
 14 16  1  0
 16 38  1  0
  6 17  1  0
 16 17  1  0
 17 18  2  0
  5 19  1  0
 19 39  1  6
 19 20  1  0
 20 40  1  0
 19 21  1  0
 21 41  1  1
 21 22  1  0
 22 42  1  0
  3 23  1  0
 21 23  1  0
 23 43  1  6
 23 24  1  0
 24 44  1  0
M  END
>  <conformer_energy>  (1) 
18.53

>  <ligand_smiles>  (1) 
CCCC#Cc1cn([C@@H]2O[C@H](CO)[C@@H](O)[C@H](O)[C@H]2O)c(=O)[nH]c1=O

>  <ligand_conf_name>  (1) 
MOL_0_isomer_0_conf_0

>  <ligand_molecule_name>  (1) 
MOL_0_isomer_0

$$$$
