MOL_0_isomer_0_chiral_N_isomer_0_conf_0
     RDKit          3D

 44 46  0  0  0  0  0  0  0  0999 V2000
    1.3685   -1.7335   -3.3794 O   0  0  0  0  0  0  0  0  0  0  0  0
    1.5063   -1.2756   -2.0068 C   0  0  1  0  0  0  0  0  0  0  0  0
    2.5159   -2.1778   -1.3177 C   0  0  1  0  0  0  0  0  0  0  0  0
    2.3887   -3.5356   -1.7653 O   0  0  0  0  0  0  0  0  0  0  0  0
    3.8199   -1.5343   -1.7712 C   0  0  2  0  0  0  0  0  0  0  0  0
    4.9537   -1.8192   -0.9172 N   0  0  0  0  0  0  0  0  0  0  0  0
    5.2159   -1.2780    0.3157 C   0  0  0  0  0  0  0  0  0  0  0  0
    6.3351   -1.7550    0.8331 N   0  0  0  0  0  0  0  0  0  0  0  0
    6.8141   -2.6313   -0.1132 C   0  0  0  0  0  0  0  0  0  0  0  0
    7.9638   -3.4410   -0.1502 C   0  0  0  0  0  0  0  0  0  0  0  0
    8.8750   -3.4881    0.8818 N   0  0  0  0  0  0  0  0  0  0  0  0
    8.1892   -4.2102   -1.2438 N   0  0  0  0  0  0  0  0  0  0  0  0
    7.2795   -4.1566   -2.2418 C   0  0  0  0  0  0  0  0  0  0  0  0
    6.1499   -3.4278   -2.3211 N   0  0  0  0  0  0  0  0  0  0  0  0
    5.9759   -2.6833   -1.2135 C   0  0  0  0  0  0  0  0  0  0  0  0
    3.6035   -0.1159   -1.8166 O   0  0  0  0  0  0  0  0  0  0  0  0
    2.1729    0.1044   -1.9700 C   0  0  2  0  0  0  0  0  0  0  0  0
    1.6381    0.9968   -0.8517 C   0  0  0  0  0  0  0  0  0  0  0  0
    0.5080    1.6944   -1.3637 O   0  0  0  0  0  0  0  0  0  0  0  0
   -0.9519    1.3992   -0.6913 P   0  0  1  0  0  5  0  0  0  0  0  0
   -1.9355    1.9626   -1.7154 O   0  0  0  0  0  0  0  0  0  0  0  0
   -1.0298   -0.0986   -0.4583 O   0  0  0  0  0  1  0  0  0  0  0  0
   -0.9110    2.3220    0.6115 O   0  0  0  0  0  0  0  0  0  0  0  0
   -0.2436    2.2112    2.0822 P   0  0  1  0  0  5  0  0  0  0  0  0
   -1.1449    1.2962    2.8840 O   0  0  0  0  0  0  0  0  0  0  0  0
    1.2152    1.8589    1.8538 O   0  0  0  0  0  1  0  0  0  0  0  0
   -0.3541    3.8486    2.5406 N   0  0  0  0  0  0  0  0  0  0  0  0
    0.0901    4.5789    4.0126 P   0  0  0  0  0  5  0  0  0  0  0  0
    1.1836    5.5141    3.4804 O   0  0  0  0  0  0  0  0  0  0  0  0
    0.5764    3.5570    5.0189 O   0  0  0  0  0  1  0  0  0  0  0  0
   -1.1542    5.3520    4.4490 O   0  0  0  0  0  1  0  0  0  0  0  0
    0.5888   -1.2301   -3.6962 H   0  0  0  0  0  0  0  0  0  0  0  0
    0.5187   -1.3575   -1.5629 H   0  0  0  0  0  0  0  0  0  0  0  0
    2.3967   -2.1411   -0.2300 H   0  0  0  0  0  0  0  0  0  0  0  0
    1.8712   -3.4529   -2.5944 H   0  0  0  0  0  0  0  0  0  0  0  0
    4.0857   -1.8551   -2.7863 H   0  0  0  0  0  0  0  0  0  0  0  0
    4.5598   -0.5427    0.7778 H   0  0  0  0  0  0  0  0  0  0  0  0
    9.6759   -4.0868    0.7979 H   0  0  0  0  0  0  0  0  0  0  0  0
    8.6722   -2.9270    1.7032 H   0  0  0  0  0  0  0  0  0  0  0  0
    7.4901   -4.7857   -3.1001 H   0  0  0  0  0  0  0  0  0  0  0  0
    2.0440    0.6100   -2.9356 H   0  0  0  0  0  0  0  0  0  0  0  0
    2.3968    1.7379   -0.5641 H   0  0  0  0  0  0  0  0  0  0  0  0
    1.3967    0.3882    0.0280 H   0  0  0  0  0  0  0  0  0  0  0  0
    0.3700    4.3147    2.0049 H   0  0  0  0  0  0  0  0  0  0  0  0
 32  1  1  0
  1  2  1  0
  2 33  1  1
  2  3  1  0
  3 34  1  1
  3  4  1  0
  4 35  1  0
  3  5  1  0
  5 36  1  6
  5  6  1  0
  6  7  1  0
  7 37  1  0
  7  8  2  0
  8  9  1  0
  9 10  1  0
 10 11  1  0
 11 38  1  0
 11 39  1  0
 10 12  2  0
 12 13  1  0
 13 40  1  0
 13 14  2  0
  9 15  2  0
  6 15  1  0
 14 15  1  0
  5 16  1  0
  2 17  1  0
 16 17  1  0
 17 41  1  6
 17 18  1  0
 18 42  1  0
 18 43  1  0
 18 19  1  0
 19 20  1  0
 20 21  2  0
 20 22  1  1
 20 23  1  0
 23 24  1  0
 24 25  2  0
 24 26  1  6
 24 27  1  0
 27 44  1  1
 27 28  1  0
 28 29  2  0
 28 30  1  0
 28 31  1  0
M  CHG  4  22  -1  26  -1  30  -1  31  -1
M  END
>  <conformer_energy>  (1) 
-101.19

>  <ligand_smiles>  (1) 
Nc1ncnc2c1ncn2[C@@H]1O[C@H](CO[P@@](=O)([O-])O[P@@](=O)([O-])NP(=O)([O-])[O-])[C@@H](O)[C@H]1O

>  <ligand_conf_name>  (1) 
MOL_0_isomer_0_chiral_N_isomer_0_conf_0

>  <ligand_molecule_name>  (1) 
MOL_0_isomer_0_chiral_N_isomer_0

$$$$
MOL_0_isomer_0_chiral_N_isomer_1_conf_0
     RDKit          3D

 44 46  0  0  0  0  0  0  0  0999 V2000
    3.4309   -0.1077    0.3019 O   0  0  0  0  0  0  0  0  0  0  0  0
    2.4310    0.8754    0.6464 C   0  0  1  0  0  0  0  0  0  0  0  0
    2.9328    2.1756    0.0480 C   0  0  1  0  0  0  0  0  0  0  0  0
    4.3507    2.3196    0.2280 O   0  0  0  0  0  0  0  0  0  0  0  0
    2.5348    1.9787   -1.4125 C   0  0  2  0  0  0  0  0  0  0  0  0
    2.3314    3.2325   -2.1201 N   0  0  0  0  0  0  0  0  0  0  0  0
    1.1683    3.9632   -2.1770 C   0  0  0  0  0  0  0  0  0  0  0  0
    1.3139    5.0813   -2.8659 N   0  0  0  0  0  0  0  0  0  0  0  0
    2.6234    5.0497   -3.2941 C   0  0  0  0  0  0  0  0  0  0  0  0
    3.3754    5.9460   -4.0739 C   0  0  0  0  0  0  0  0  0  0  0  0
    2.8476    7.1181   -4.5743 N   0  0  0  0  0  0  0  0  0  0  0  0
    4.6679    5.6536   -4.3469 N   0  0  0  0  0  0  0  0  0  0  0  0
    5.1650    4.4979   -3.8478 C   0  0  0  0  0  0  0  0  0  0  0  0
    4.5467    3.5649   -3.1049 N   0  0  0  0  0  0  0  0  0  0  0  0
    3.2716    3.9074   -2.8536 C   0  0  0  0  0  0  0  0  0  0  0  0
    1.3085    1.2335   -1.4364 O   0  0  0  0  0  0  0  0  0  0  0  0
    1.1147    0.6458   -0.0978 C   0  0  2  0  0  0  0  0  0  0  0  0
   -0.0476    1.3837    0.5803 C   0  0  0  0  0  0  0  0  0  0  0  0
   -1.2574    1.1628   -0.1316 O   0  0  0  0  0  0  0  0  0  0  0  0
   -2.4531    0.3877    0.6751 P   0  0  1  0  0  5  0  0  0  0  0  0
   -2.6804    1.1748    1.9499 O   0  0  0  0  0  0  0  0  0  0  0  0
   -3.6035    0.3281   -0.3272 O   0  0  0  0  0  1  0  0  0  0  0  0
   -1.7947   -1.0515    0.8294 O   0  0  0  0  0  0  0  0  0  0  0  0
   -1.1772   -2.0239    1.9500 P   0  0  1  0  0  5  0  0  0  0  0  0
   -2.1833   -2.0944    3.0850 O   0  0  0  0  0  0  0  0  0  0  0  0
   -0.8552   -3.3023    1.1995 O   0  0  0  0  0  1  0  0  0  0  0  0
    0.1805   -1.1746    2.4867 N   0  0  0  0  0  0  0  0  0  0  0  0
    1.6867   -1.7410    3.0071 P   0  0  0  0  0  5  0  0  0  0  0  0
    2.1162   -0.5250    3.8271 O   0  0  0  0  0  0  0  0  0  0  0  0
    2.5390   -1.8765    1.7523 O   0  0  0  0  0  1  0  0  0  0  0  0
    1.5209   -2.9847    3.8479 O   0  0  0  0  0  1  0  0  0  0  0  0
    3.1140   -0.9114    0.8466 H   0  0  0  0  0  0  0  0  0  0  0  0
    2.3535    0.9256    1.7336 H   0  0  0  0  0  0  0  0  0  0  0  0
    2.4342    3.0413    0.4975 H   0  0  0  0  0  0  0  0  0  0  0  0
    4.6206    1.3885    0.4229 H   0  0  0  0  0  0  0  0  0  0  0  0
    3.2872    1.4100   -1.9723 H   0  0  0  0  0  0  0  0  0  0  0  0
    0.2548    3.6220   -1.6992 H   0  0  0  0  0  0  0  0  0  0  0  0
    3.4414    7.7212   -5.1125 H   0  0  0  0  0  0  0  0  0  0  0  0
    1.8823    7.3205   -4.3512 H   0  0  0  0  0  0  0  0  0  0  0  0
    6.2056    4.2930   -4.0790 H   0  0  0  0  0  0  0  0  0  0  0  0
    0.8843   -0.4124   -0.2522 H   0  0  0  0  0  0  0  0  0  0  0  0
    0.1191    2.4653    0.5519 H   0  0  0  0  0  0  0  0  0  0  0  0
   -0.1440    1.1119    1.6322 H   0  0  0  0  0  0  0  0  0  0  0  0
   -0.1162   -0.6444    3.2936 H   0  0  0  0  0  0  0  0  0  0  0  0
 32  1  1  0
  1  2  1  0
  2 33  1  1
  2  3  1  0
  3 34  1  1
  3  4  1  0
  4 35  1  0
  3  5  1  0
  5 36  1  6
  5  6  1  0
  6  7  1  0
  7 37  1  0
  7  8  2  0
  8  9  1  0
  9 10  1  0
 10 11  1  0
 11 38  1  0
 11 39  1  0
 10 12  2  0
 12 13  1  0
 13 40  1  0
 13 14  2  0
  9 15  2  0
  6 15  1  0
 14 15  1  0
  5 16  1  0
  2 17  1  0
 16 17  1  0
 17 41  1  6
 17 18  1  0
 18 42  1  0
 18 43  1  0
 18 19  1  0
 19 20  1  0
 20 21  2  0
 20 22  1  6
 20 23  1  0
 23 24  1  0
 24 25  2  0
 24 26  1  6
 24 27  1  0
 27 44  1  6
 27 28  1  0
 28 29  2  0
 28 30  1  0
 28 31  1  0
M  CHG  4  22  -1  26  -1  30  -1  31  -1
M  END
>  <conformer_energy>  (2) 
-134.08

>  <ligand_smiles>  (2) 
Nc1ncnc2c1ncn2[C@@H]1O[C@H](CO[P@@](=O)([O-])O[P@@](=O)([O-])NP(=O)([O-])[O-])[C@@H](O)[C@H]1O

>  <ligand_conf_name>  (2) 
MOL_0_isomer_0_chiral_N_isomer_1_conf_0

>  <ligand_molecule_name>  (2) 
MOL_0_isomer_0_chiral_N_isomer_1

$$$$
