MOL_0_isomer_0_conf_0
     RDKit          3D

 33 35  0  0  0  0  0  0  0  0999 V2000
    1.9389   -0.8211   -3.4250 O   0  0  0  0  0  0  0  0  0  0  0  0
    3.0368   -0.0166   -3.0067 C   0  0  0  0  0  0  0  0  0  0  0  0
    3.1800    0.0428   -1.4817 C   0  0  1  0  0  0  0  0  0  0  0  0
    2.0404    0.7428   -0.9322 O   0  0  0  0  0  0  0  0  0  0  0  0
    1.3848   -0.1172    0.0135 C   0  0  1  0  0  0  0  0  0  0  0  0
   -0.0309    0.0946   -0.0169 N   0  0  0  0  0  0  0  0  0  0  0  0
   -0.8013    0.3687    1.1381 C   0  0  0  0  0  0  0  0  0  0  0  0
   -0.4291    0.4609    2.2936 O   0  0  0  0  0  0  0  0  0  0  0  0
   -2.1213    0.5040    0.6733 N   0  0  0  0  0  0  0  0  0  0  0  0
   -2.1096    0.3083   -0.6743 C   0  0  0  0  0  0  0  0  0  0  0  0
   -3.2026    0.3173   -1.6389 C   0  0  0  0  0  0  0  0  0  0  0  0
   -4.3671    0.5369   -1.3331 O   0  0  0  0  0  0  0  0  0  0  0  0
   -2.7843    0.0460   -2.9218 N   0  0  0  0  0  0  0  0  0  0  0  0
   -1.4770   -0.2083   -3.2542 C   0  0  0  0  0  0  0  0  0  0  0  0
   -1.2107   -0.4729   -4.5492 N   0  0  0  0  0  0  0  0  0  0  0  0
   -0.5068   -0.2076   -2.3866 N   0  0  0  0  0  0  0  0  0  0  0  0
   -0.8709    0.0584   -1.1042 C   0  0  0  0  0  0  0  0  0  0  0  0
    1.8226   -1.5392   -0.2951 C   0  0  0  0  0  0  0  0  0  0  0  0
    3.2301   -1.3280   -0.8034 C   0  0  2  0  0  0  0  0  0  0  0  0
    4.1327   -1.3126    0.3101 O   0  0  0  0  0  0  0  0  0  0  0  0
    1.1475   -0.4605   -2.9614 H   0  0  0  0  0  0  0  0  0  0  0  0
    3.9429   -0.4341   -3.4561 H   0  0  0  0  0  0  0  0  0  0  0  0
    2.8796    0.9875   -3.4141 H   0  0  0  0  0  0  0  0  0  0  0  0
    4.0676    0.6380   -1.2385 H   0  0  0  0  0  0  0  0  0  0  0  0
    1.7592    0.1681    1.0044 H   0  0  0  0  0  0  0  0  0  0  0  0
   -2.9291    0.7028    1.2437 H   0  0  0  0  0  0  0  0  0  0  0  0
   -3.5010    0.0372   -3.6287 H   0  0  0  0  0  0  0  0  0  0  0  0
   -0.2503   -0.6890   -4.8030 H   0  0  0  0  0  0  0  0  0  0  0  0
   -1.9058   -0.5007   -5.2787 H   0  0  0  0  0  0  0  0  0  0  0  0
    1.7585   -2.1811    0.5891 H   0  0  0  0  0  0  0  0  0  0  0  0
    1.2058   -1.9854   -1.0822 H   0  0  0  0  0  0  0  0  0  0  0  0
    3.5663   -2.1290   -1.4678 H   0  0  0  0  0  0  0  0  0  0  0  0
    3.9983   -0.4961    0.8230 H   0  0  0  0  0  0  0  0  0  0  0  0
 21  1  1  0
  1  2  1  0
  2 22  1  0
  2 23  1  0
  2  3  1  0
  3 24  1  6
  3  4  1  0
  4  5  1  0
  5 25  1  1
  5  6  1  0
  6  7  1  0
  7  8  2  0
  7  9  1  0
  9 26  1  0
  9 10  1  0
 10 11  1  0
 11 12  2  0
 11 13  1  0
 13 27  1  0
 13 14  1  0
 14 15  1  0
 15 28  1  0
 15 29  1  0
 14 16  2  0
 10 17  2  0
  6 17  1  0
 16 17  1  0
  5 18  1  0
 18 30  1  0
 18 31  1  0
  3 19  1  0
 18 19  1  0
 19 32  1  6
 19 20  1  0
 20 33  1  0
M  END
>  <conformer_energy>  (1) 
-126.78

>  <ligand_smiles>  (1) 
Nc1nc2c([nH]c(=O)n2[C@H]2C[C@H](O)[C@@H](CO)O2)c(=O)[nH]1

>  <ligand_conf_name>  (1) 
MOL_0_isomer_0_conf_0

>  <ligand_molecule_name>  (1) 
MOL_0_isomer_0

$$$$
