MOL_0_isomer_0_conf_0
     RDKit          3D

 58 62  0  0  0  0  0  0  0  0999 V2000
   -0.0092    9.3373    6.0116 C   0  0  0  0  0  0  0  0  0  0  0  0
    1.2381    9.2736    6.5474 N   0  0  0  0  0  0  0  0  0  0  0  0
    1.8644    8.2795    5.9324 C   0  0  0  0  0  0  0  0  0  0  0  0
    3.3484    8.0373    6.0638 C   0  0  0  0  0  0  0  0  0  0  0  0
    3.8013    7.8725    7.4582 N   0  0  0  0  0  0  0  0  0  0  0  0
    3.3031    6.6534    8.0848 C   0  0  0  0  0  0  0  0  0  0  0  0
    5.2594    7.9295    7.5360 C   0  0  0  0  0  0  0  0  0  0  0  0
    1.0071    7.6427    5.0320 N   0  0  0  0  0  0  0  0  0  0  0  0
    1.2087    6.4828    4.2287 C   0  0  0  0  0  0  0  0  0  0  0  0
    0.5324    6.3570    3.0038 C   0  0  0  0  0  0  0  0  0  0  0  0
    0.6969    5.2169    2.2021 C   0  0  0  0  0  0  0  0  0  0  0  0
    1.5249    4.1782    2.6195 C   0  0  0  0  0  0  0  0  0  0  0  0
    1.7577    2.9897    1.8931 N   0  0  0  0  0  0  0  0  0  0  0  0
    1.2126    2.6160    0.6800 C   0  0  0  0  0  0  0  0  0  0  0  0
    0.4018    3.2784    0.0462 O   0  0  0  0  0  0  0  0  0  0  0  0
    1.7015    1.3418    0.2048 C   0  0  0  0  0  0  0  0  0  0  0  0
    3.0043    0.8697    0.2450 C   0  0  0  0  0  0  0  0  0  0  0  0
    3.0218   -0.3133   -0.5244 C   0  0  0  0  0  0  0  0  0  0  0  0
    4.2224   -1.1704   -0.8343 C   0  0  0  0  0  0  0  0  0  0  0  0
    5.2711   -0.8669   -0.0190 F   0  0  0  0  0  0  0  0  0  0  0  0
    4.6629   -0.9961   -2.1074 F   0  0  0  0  0  0  0  0  0  0  0  0
    3.9798   -2.4966   -0.6694 F   0  0  0  0  0  0  0  0  0  0  0  0
    1.7969   -0.5767   -1.0031 N   0  0  0  0  0  0  0  0  0  0  0  0
    0.9720    0.3786   -0.4832 N   0  0  0  0  0  0  0  0  0  0  0  0
   -0.4409    0.2103   -0.6515 C   0  0  0  0  0  0  0  0  0  0  0  0
   -1.3755    0.8794    0.1556 C   0  0  0  0  0  0  0  0  0  0  0  0
   -2.7573    0.6926   -0.0101 C   0  0  0  0  0  0  0  0  0  0  0  0
   -3.1506   -0.2000   -1.0007 C   0  0  0  0  0  0  0  0  0  0  0  0
   -4.4276   -0.5301   -1.3266 O   0  0  0  0  0  0  0  0  0  0  0  0
   -4.4154   -1.4581   -2.3559 N   0  0  0  0  0  0  0  0  0  0  0  0
   -3.1279   -1.6747   -2.6364 C   0  0  0  0  0  0  0  0  0  0  0  0
   -2.6895   -2.5190   -3.5829 N   0  0  0  0  0  0  0  0  0  0  0  0
   -2.2756   -0.9009   -1.8074 C   0  0  0  0  0  0  0  0  0  0  0  0
   -0.8922   -0.7038   -1.6328 C   0  0  0  0  0  0  0  0  0  0  0  0
    2.1773    4.3079    3.8508 C   0  0  0  0  0  0  0  0  0  0  0  0
    2.9666    3.3106    4.2825 F   0  0  0  0  0  0  0  0  0  0  0  0
    2.0254    5.4364    4.6555 C   0  0  0  0  0  0  0  0  0  0  0  0
   -0.1654    8.3747    5.0502 C   0  0  0  0  0  0  0  0  0  0  0  0
   -0.7294   10.0748    6.3414 H   0  0  0  0  0  0  0  0  0  0  0  0
    3.7136    7.2229    5.4349 H   0  0  0  0  0  0  0  0  0  0  0  0
    3.8184    8.9443    5.6572 H   0  0  0  0  0  0  0  0  0  0  0  0
    3.5991    6.6189    9.1396 H   0  0  0  0  0  0  0  0  0  0  0  0
    3.6898    5.7518    7.5976 H   0  0  0  0  0  0  0  0  0  0  0  0
    2.2089    6.6129    8.0743 H   0  0  0  0  0  0  0  0  0  0  0  0
    5.5940    7.8710    8.5778 H   0  0  0  0  0  0  0  0  0  0  0  0
    5.6323    8.8821    7.1433 H   0  0  0  0  0  0  0  0  0  0  0  0
    5.7335    7.1157    6.9755 H   0  0  0  0  0  0  0  0  0  0  0  0
   -0.1077    7.1513    2.6228 H   0  0  0  0  0  0  0  0  0  0  0  0
    0.1643    5.1836    1.2559 H   0  0  0  0  0  0  0  0  0  0  0  0
    2.3871    2.3361    2.3470 H   0  0  0  0  0  0  0  0  0  0  0  0
    3.8600    1.3566    0.6965 H   0  0  0  0  0  0  0  0  0  0  0  0
   -1.0754    1.5460    0.9580 H   0  0  0  0  0  0  0  0  0  0  0  0
   -3.4841    1.2090    0.6063 H   0  0  0  0  0  0  0  0  0  0  0  0
   -1.7118   -2.6803   -3.7846 H   0  0  0  0  0  0  0  0  0  0  0  0
   -3.3550   -3.0387   -4.1433 H   0  0  0  0  0  0  0  0  0  0  0  0
   -0.1960   -1.2485   -2.2648 H   0  0  0  0  0  0  0  0  0  0  0  0
    2.5119    5.4301    5.6220 H   0  0  0  0  0  0  0  0  0  0  0  0
   -1.0227    8.1224    4.4441 H   0  0  0  0  0  0  0  0  0  0  0  0
 39  1  1  0
  1  2  1  0
  2  3  2  0
  3  4  1  0
  4 40  1  0
  4 41  1  0
  4  5  1  0
  5  6  1  0
  6 42  1  0
  6 43  1  0
  6 44  1  0
  5  7  1  0
  7 45  1  0
  7 46  1  0
  7 47  1  0
  3  8  1  0
  8  9  1  0
  9 10  2  0
 10 48  1  0
 10 11  1  0
 11 49  1  0
 11 12  2  0
 12 13  1  0
 13 50  1  0
 13 14  1  0
 14 15  2  0
 14 16  1  0
 16 17  2  0
 17 51  1  0
 17 18  1  0
 18 19  1  0
 19 20  1  0
 19 21  1  0
 19 22  1  0
 18 23  2  0
 16 24  1  0
 23 24  1  0
 24 25  1  0
 25 26  2  0
 26 52  1  0
 26 27  1  0
 27 53  1  0
 27 28  2  0
 28 29  1  0
 29 30  1  0
 30 31  2  0
 31 32  1  0
 32 54  1  0
 32 55  1  0
 28 33  1  0
 31 33  1  0
 25 34  1  0
 33 34  2  0
 34 56  1  0
 12 35  1  0
 35 36  1  0
  9 37  1  0
 35 37  2  0
 37 57  1  0
  1 38  2  0
  8 38  1  0
 38 58  1  0
M  END
>  <conformer_energy>  (1) 
120.51

>  <ligand_smiles>  (1) 
CN(C)Cc1nccn1-c1ccc(NC(=O)c2cc(C(F)(F)F)nn2-c2ccc3onc(N)c3c2)c(F)c1

>  <ligand_conf_name>  (1) 
MOL_0_isomer_0_conf_0

>  <ligand_molecule_name>  (1) 
MOL_0_isomer_0

$$$$
