MOL_0_isomer_0_conf_0
     RDKit          3D

 54 57  0  0  0  0  0  0  0  0999 V2000
   12.3001   -0.8470    1.0532 C   0  0  0  0  0  0  0  0  0  0  0  0
   13.4300   -0.1620    0.8108 N   0  0  0  0  0  0  0  0  0  0  0  0
   13.3911    0.7418   -0.1739 C   0  0  0  0  0  0  0  0  0  0  0  0
   14.5503    1.4263   -0.4015 N   0  0  0  0  0  0  0  0  0  0  0  0
   14.6392    2.4568   -1.3919 C   0  0  0  0  0  0  0  0  0  0  0  0
   12.3050    0.9899   -0.9166 N   0  0  0  0  0  0  0  0  0  0  0  0
   11.1807    0.2910   -0.6445 C   0  0  0  0  0  0  0  0  0  0  0  0
    9.9909    0.5890   -1.4883 C   0  0  0  0  0  0  0  0  0  0  0  0
    8.6091    0.4558   -1.0246 C   0  0  0  0  0  0  0  0  0  0  0  0
    7.5515    0.7243   -1.8079 C   0  0  0  0  0  0  0  0  0  0  0  0
    6.2179    0.6224   -1.4634 N   0  0  0  0  0  0  0  0  0  0  0  0
    5.6706    0.2132   -0.2649 C   0  0  0  0  0  0  0  0  0  0  0  0
    6.3021   -0.0937    0.7407 O   0  0  0  0  0  0  0  0  0  0  0  0
    4.1807    0.1768   -0.2184 C   0  0  0  0  0  0  0  0  0  0  0  0
    3.4029   -0.1130   -1.3405 C   0  0  0  0  0  0  0  0  0  0  0  0
    2.0040   -0.1337   -1.2383 C   0  0  0  0  0  0  0  0  0  0  0  0
    1.3373    0.1200   -0.0277 C   0  0  0  0  0  0  0  0  0  0  0  0
   -0.0472    0.0988    0.0616 N   0  0  0  0  0  0  0  0  0  0  0  0
   -0.7132   -0.1579    1.3430 C   0  0  0  0  0  0  0  0  0  0  0  0
   -2.0796   -0.8010    1.1170 C   0  0  0  0  0  0  0  0  0  0  0  0
   -2.9932    0.0675    0.2564 C   0  0  0  0  0  0  0  0  0  0  0  0
   -2.2192    0.9527   -0.7168 C   0  0  0  0  0  0  0  0  0  0  0  0
   -0.8813    0.3377   -1.1208 C   0  0  0  0  0  0  0  0  0  0  0  0
    2.1475    0.3893    1.0872 C   0  0  0  0  0  0  0  0  0  0  0  0
    3.5460    0.4146    1.0011 C   0  0  0  0  0  0  0  0  0  0  0  0
    7.8154    1.1927   -3.2157 C   0  0  0  0  0  0  0  0  0  0  0  0
    6.8855    1.4450   -3.9792 O   0  0  0  0  0  0  0  0  0  0  0  0
    9.1311    1.3153   -3.5793 N   0  0  0  0  0  0  0  0  0  0  0  0
   10.1849    1.0275   -2.7480 C   0  0  0  0  0  0  0  0  0  0  0  0
   11.1362   -0.6623    0.3510 C   0  0  0  0  0  0  0  0  0  0  0  0
   12.3625   -1.5756    1.8561 H   0  0  0  0  0  0  0  0  0  0  0  0
   15.3169    1.1936    0.2091 H   0  0  0  0  0  0  0  0  0  0  0  0
   14.4318    2.0657   -2.3936 H   0  0  0  0  0  0  0  0  0  0  0  0
   15.6515    2.8727   -1.4016 H   0  0  0  0  0  0  0  0  0  0  0  0
   13.9454    3.2765   -1.1774 H   0  0  0  0  0  0  0  0  0  0  0  0
    8.4668    0.1465    0.0041 H   0  0  0  0  0  0  0  0  0  0  0  0
    5.5925    0.9196   -2.2092 H   0  0  0  0  0  0  0  0  0  0  0  0
    3.8539   -0.3575   -2.2979 H   0  0  0  0  0  0  0  0  0  0  0  0
    1.4387   -0.3880   -2.1315 H   0  0  0  0  0  0  0  0  0  0  0  0
   -0.8216    0.7809    1.8992 H   0  0  0  0  0  0  0  0  0  0  0  0
   -0.1252   -0.8502    1.9581 H   0  0  0  0  0  0  0  0  0  0  0  0
   -2.5646   -1.0119    2.0768 H   0  0  0  0  0  0  0  0  0  0  0  0
   -1.9391   -1.7694    0.6189 H   0  0  0  0  0  0  0  0  0  0  0  0
   -3.6833   -0.5821   -0.2953 H   0  0  0  0  0  0  0  0  0  0  0  0
   -3.6165    0.7041    0.8958 H   0  0  0  0  0  0  0  0  0  0  0  0
   -2.8307    1.1510   -1.6043 H   0  0  0  0  0  0  0  0  0  0  0  0
   -2.0348    1.9251   -0.2413 H   0  0  0  0  0  0  0  0  0  0  0  0
   -0.3942    1.0400   -1.8084 H   0  0  0  0  0  0  0  0  0  0  0  0
   -1.0419   -0.6049   -1.6577 H   0  0  0  0  0  0  0  0  0  0  0  0
    1.7011    0.6094    2.0534 H   0  0  0  0  0  0  0  0  0  0  0  0
    4.1324    0.6295    1.8921 H   0  0  0  0  0  0  0  0  0  0  0  0
    9.3055    1.6388   -4.5229 H   0  0  0  0  0  0  0  0  0  0  0  0
   11.1737    1.1689   -3.1771 H   0  0  0  0  0  0  0  0  0  0  0  0
   10.2548   -1.2469    0.5750 H   0  0  0  0  0  0  0  0  0  0  0  0
 31  1  1  0
  1  2  2  0
  2  3  1  0
  3  4  1  0
  4 32  1  0
  4  5  1  0
  5 33  1  0
  5 34  1  0
  5 35  1  0
  3  6  2  0
  6  7  1  0
  7  8  1  0
  8  9  1  0
  9 36  1  0
  9 10  2  0
 10 11  1  0
 11 37  1  0
 11 12  1  0
 12 13  2  0
 12 14  1  0
 14 15  2  0
 15 38  1  0
 15 16  1  0
 16 39  1  0
 16 17  2  0
 17 18  1  0
 18 19  1  0
 19 40  1  0
 19 41  1  0
 19 20  1  0
 20 42  1  0
 20 43  1  0
 20 21  1  0
 21 44  1  0
 21 45  1  0
 21 22  1  0
 22 46  1  0
 22 47  1  0
 18 23  1  0
 22 23  1  0
 23 48  1  0
 23 49  1  0
 17 24  1  0
 24 50  1  0
 14 25  1  0
 24 25  2  0
 25 51  1  0
 10 26  1  0
 26 27  2  0
 26 28  1  0
 28 52  1  0
  8 29  2  0
 28 29  1  0
 29 53  1  0
  1 30  1  0
  7 30  2  0
 30 54  1  0
M  END
>  <conformer_energy>  (1) 
-40.90

>  <ligand_smiles>  (1) 
CNc1nccc(-c2c[nH]c(=O)c(NC(=O)c3ccc(N4CCCCC4)cc3)c2)n1

>  <ligand_conf_name>  (1) 
MOL_0_isomer_0_conf_0

>  <ligand_molecule_name>  (1) 
MOL_0_isomer_0

$$$$
