MOL_0_isomer_0_conf_0
     RDKit          3D

 43 44  0  0  0  0  0  0  0  0999 V2000
   -1.9956    0.8243    0.8694 O   0  0  0  0  0  0  0  0  0  0  0  0
   -2.8445   -0.0114   -0.2255 P   0  0  1  0  0  5  0  0  0  0  0  0
   -4.2237   -0.1344    0.3653 O   0  0  0  0  0  0  0  0  0  0  0  0
   -2.6078    0.6955   -1.5392 O   0  0  0  0  0  1  0  0  0  0  0  0
   -2.0009   -1.5955   -0.2129 C   0  0  0  0  0  0  0  0  0  0  0  0
   -0.5970   -1.5827   -0.7456 C   0  0  0  0  0  0  0  0  0  0  0  0
    0.2569   -2.3740   -0.3423 O   0  0  0  0  0  0  0  0  0  0  0  0
   -0.3600   -0.7023   -1.7714 N   0  0  0  0  0  0  0  0  0  0  0  0
    0.9455   -0.4839   -2.3421 C   0  0  0  0  0  0  0  0  0  0  0  0
    1.7335    0.5656   -1.5569 C   0  0  0  0  0  0  0  0  0  0  0  0
    1.1504    1.9711   -1.7299 C   0  0  0  0  0  0  0  0  0  0  0  0
    1.8055    2.9676   -0.8030 C   0  0  0  0  0  0  0  0  0  0  0  0
    1.2081    3.2650    0.4294 C   0  0  0  0  0  0  0  0  0  0  0  0
    1.8059    4.1673    1.3074 C   0  0  0  0  0  0  0  0  0  0  0  0
    3.0065    4.7842    0.9606 C   0  0  0  0  0  0  0  0  0  0  0  0
    3.6057    4.5016   -0.2670 C   0  0  0  0  0  0  0  0  0  0  0  0
    4.8135    5.1133   -0.5150 O   0  0  0  0  0  0  0  0  0  0  0  0
    5.0564    5.5952   -1.7798 C   0  0  0  0  0  0  0  0  0  0  0  0
    4.1080    6.2920   -2.5340 C   0  0  0  0  0  0  0  0  0  0  0  0
    4.4509    6.7896   -3.7930 C   0  0  0  0  0  0  0  0  0  0  0  0
    5.7406    6.6029   -4.2900 C   0  0  0  0  0  0  0  0  0  0  0  0
    6.6942    5.9284   -3.5272 C   0  0  0  0  0  0  0  0  0  0  0  0
    6.3538    5.4316   -2.2685 C   0  0  0  0  0  0  0  0  0  0  0  0
    3.0218    3.5776   -1.1388 C   0  0  0  0  0  0  0  0  0  0  0  0
   -2.4772    1.6641    0.9715 H   0  0  0  0  0  0  0  0  0  0  0  0
   -1.9713   -1.9633    0.8192 H   0  0  0  0  0  0  0  0  0  0  0  0
   -2.5749   -2.3111   -0.8113 H   0  0  0  0  0  0  0  0  0  0  0  0
   -1.1294   -0.0512   -2.0072 H   0  0  0  0  0  0  0  0  0  0  0  0
    0.8073   -0.1748   -3.3835 H   0  0  0  0  0  0  0  0  0  0  0  0
    1.4961   -1.4317   -2.3380 H   0  0  0  0  0  0  0  0  0  0  0  0
    2.7722    0.5641   -1.9037 H   0  0  0  0  0  0  0  0  0  0  0  0
    1.7555    0.2925   -0.4945 H   0  0  0  0  0  0  0  0  0  0  0  0
    0.0697    1.9718   -1.5440 H   0  0  0  0  0  0  0  0  0  0  0  0
    1.2744    2.3025   -2.7691 H   0  0  0  0  0  0  0  0  0  0  0  0
    0.2742    2.7774    0.7111 H   0  0  0  0  0  0  0  0  0  0  0  0
    1.3373    4.3776    2.2637 H   0  0  0  0  0  0  0  0  0  0  0  0
    3.4767    5.4786    1.6469 H   0  0  0  0  0  0  0  0  0  0  0  0
    3.1052    6.4555   -2.1491 H   0  0  0  0  0  0  0  0  0  0  0  0
    3.7104    7.3235   -4.3816 H   0  0  0  0  0  0  0  0  0  0  0  0
    6.0024    6.9885   -5.2673 H   0  0  0  0  0  0  0  0  0  0  0  0
    7.7020    5.7927   -3.9083 H   0  0  0  0  0  0  0  0  0  0  0  0
    7.0963    4.9145   -1.6667 H   0  0  0  0  0  0  0  0  0  0  0  0
    3.5111    3.3215   -2.0757 H   0  0  0  0  0  0  0  0  0  0  0  0
 25  1  1  0
  1  2  1  0
  2  3  2  0
  2  4  1  6
  2  5  1  0
  5 26  1  0
  5 27  1  0
  5  6  1  0
  6  7  2  0
  6  8  1  0
  8 28  1  0
  8  9  1  0
  9 29  1  0
  9 30  1  0
  9 10  1  0
 10 31  1  0
 10 32  1  0
 10 11  1  0
 11 33  1  0
 11 34  1  0
 11 12  1  0
 12 13  2  0
 13 35  1  0
 13 14  1  0
 14 36  1  0
 14 15  2  0
 15 37  1  0
 15 16  1  0
 16 17  1  0
 17 18  1  0
 18 19  2  0
 19 38  1  0
 19 20  1  0
 20 39  1  0
 20 21  2  0
 21 40  1  0
 21 22  1  0
 22 41  1  0
 18 23  1  0
 22 23  2  0
 23 42  1  0
 12 24  1  0
 16 24  2  0
 24 43  1  0
M  CHG  1   4  -1
M  END
>  <conformer_energy>  (1) 
-88.79

>  <ligand_smiles>  (1) 
O=C(C[P@](=O)([O-])O)NCCCc1cccc(Oc2ccccc2)c1

>  <ligand_conf_name>  (1) 
MOL_0_isomer_0_conf_0

>  <ligand_molecule_name>  (1) 
MOL_0_isomer_0

$$$$
