MOL_0_isomer_0_conf_0
     RDKit          3D

 63 68  0  0  0  0  0  0  0  0999 V2000
    1.3778    1.8136    2.6520 C   0  0  0  0  0  0  0  0  0  0  0  0
    0.7295    2.8205    3.5264 C   0  0  0  0  0  0  0  0  0  0  0  0
   -0.0789    3.6425    3.1168 O   0  0  0  0  0  0  0  0  0  0  0  0
    1.1393    2.7437    4.8260 N   0  0  0  0  0  0  0  0  0  0  0  0
    0.6333    3.6526    5.8406 C   0  0  2  0  0  0  0  0  0  0  0  0
    1.6375    3.6394    6.9611 C   0  0  0  0  0  0  0  0  0  0  0  0
    2.5309    2.7013    7.2196 N   0  0  0  0  0  0  0  0  0  0  0  0
    3.1989    3.1356    8.3369 C   0  0  0  0  0  0  0  0  0  0  0  0
    2.7230    4.3578    8.7743 C   0  0  0  0  0  0  0  0  0  0  0  0
    3.0750    5.1957    9.9185 C   0  0  0  0  0  0  0  0  0  0  0  0
    2.9937    6.5954    9.8338 C   0  0  0  0  0  0  0  0  0  0  0  0
    3.3189    7.4176   10.9241 C   0  0  0  0  0  0  0  0  0  0  0  0
    3.7320    6.8199   12.1280 C   0  0  0  0  0  0  0  0  0  0  0  0
    4.1326    7.2631   13.4163 C   0  0  0  0  0  0  0  0  0  0  0  0
    4.2092    8.5434   13.7895 N   0  0  0  0  0  0  0  0  0  0  0  0
    4.4289    6.2525   14.2289 N   0  0  0  0  0  0  0  0  0  0  0  0
    4.2266    5.1627   13.4707 N   0  0  0  0  0  0  0  0  0  0  0  0
    3.8093    5.4331   12.1945 C   0  0  0  0  0  0  0  0  0  0  0  0
    3.4970    4.5936   11.1160 C   0  0  0  0  0  0  0  0  0  0  0  0
    1.7353    4.6659    7.8674 N   0  0  0  0  0  0  0  0  0  0  0  0
   -0.7701    3.2320    6.3234 C   0  0  0  0  0  0  0  0  0  0  0  0
   -1.4369    4.2889    7.1777 C   0  0  0  0  0  0  0  0  0  0  0  0
   -1.9526    5.4509    6.5856 C   0  0  0  0  0  0  0  0  0  0  0  0
   -2.5249    6.4491    7.3744 C   0  0  0  0  0  0  0  0  0  0  0  0
   -2.5878    6.2943    8.7586 C   0  0  0  0  0  0  0  0  0  0  0  0
   -2.0849    5.1393    9.3564 C   0  0  0  0  0  0  0  0  0  0  0  0
   -1.5145    4.1381    8.5696 C   0  0  0  0  0  0  0  0  0  0  0  0
    1.0024    1.7166    1.3668 C   0  0  0  0  0  0  0  0  0  0  0  0
    1.6057    0.7515    0.4370 C   0  0  0  0  0  0  0  0  0  0  0  0
    2.9579    0.9830    0.1068 C   0  0  0  0  0  0  0  0  0  0  0  0
    3.6241    0.1636   -0.8000 C   0  0  0  0  0  0  0  0  0  0  0  0
    5.2729    0.4735   -1.1862 Cl  0  0  0  0  0  0  0  0  0  0  0  0
    2.9592   -0.8980   -1.4008 C   0  0  0  0  0  0  0  0  0  0  0  0
    1.6172   -1.1437   -1.0930 C   0  0  0  0  0  0  0  0  0  0  0  0
    0.9223   -0.3297   -0.1719 C   0  0  0  0  0  0  0  0  0  0  0  0
   -0.4407   -0.6386    0.1153 N   0  0  0  0  0  0  0  0  0  0  0  0
   -1.1762   -0.0146    1.0626 N   0  0  0  0  0  0  0  0  0  0  0  0
   -2.3785   -0.5716    1.0354 N   0  0  0  0  0  0  0  0  0  0  0  0
   -2.4410   -1.5593    0.0922 N   0  0  0  0  0  0  0  0  0  0  0  0
   -1.2514   -1.5916   -0.4629 C   0  0  0  0  0  0  0  0  0  0  0  0
    2.1442    1.1800    3.0800 H   0  0  0  0  0  0  0  0  0  0  0  0
    1.8334    2.0719    5.1363 H   0  0  0  0  0  0  0  0  0  0  0  0
    0.6024    4.6560    5.3971 H   0  0  0  0  0  0  0  0  0  0  0  0
    3.9928    2.5424    8.7734 H   0  0  0  0  0  0  0  0  0  0  0  0
    2.6927    7.0768    8.9065 H   0  0  0  0  0  0  0  0  0  0  0  0
    3.2537    8.4983   10.8344 H   0  0  0  0  0  0  0  0  0  0  0  0
    4.5031    8.7665   14.7317 H   0  0  0  0  0  0  0  0  0  0  0  0
    3.9945    9.3233   13.1841 H   0  0  0  0  0  0  0  0  0  0  0  0
    4.3921    4.2540   13.8876 H   0  0  0  0  0  0  0  0  0  0  0  0
    3.5644    3.5134   11.2142 H   0  0  0  0  0  0  0  0  0  0  0  0
    1.1248    5.4711    7.9048 H   0  0  0  0  0  0  0  0  0  0  0  0
   -1.4254    3.0334    5.4654 H   0  0  0  0  0  0  0  0  0  0  0  0
   -0.7184    2.2827    6.8738 H   0  0  0  0  0  0  0  0  0  0  0  0
   -1.9168    5.5793    5.5040 H   0  0  0  0  0  0  0  0  0  0  0  0
   -2.9293    7.3441    6.9075 H   0  0  0  0  0  0  0  0  0  0  0  0
   -3.0391    7.0701    9.3717 H   0  0  0  0  0  0  0  0  0  0  0  0
   -2.1405    5.0159   10.4356 H   0  0  0  0  0  0  0  0  0  0  0  0
   -1.1247    3.2425    9.0512 H   0  0  0  0  0  0  0  0  0  0  0  0
    0.2146    2.3513    0.9639 H   0  0  0  0  0  0  0  0  0  0  0  0
    3.4928    1.8233    0.5513 H   0  0  0  0  0  0  0  0  0  0  0  0
    3.4775   -1.5375   -2.1123 H   0  0  0  0  0  0  0  0  0  0  0  0
    1.1535   -1.9921   -1.5902 H   0  0  0  0  0  0  0  0  0  0  0  0
   -0.9516   -2.2560   -1.2578 H   0  0  0  0  0  0  0  0  0  0  0  0
 41  1  1  0
  1  2  1  0
  2  3  2  0
  2  4  1  0
  4 42  1  0
  4  5  1  0
  5 43  1  6
  5  6  1  0
  6  7  2  0
  7  8  1  0
  8 44  1  0
  8  9  2  0
  9 10  1  0
 10 11  2  0
 11 45  1  0
 11 12  1  0
 12 46  1  0
 12 13  2  0
 13 14  1  0
 14 15  1  0
 15 47  1  0
 15 48  1  0
 14 16  2  0
 16 17  1  0
 17 49  1  0
 13 18  1  0
 17 18  1  0
 10 19  1  0
 18 19  2  0
 19 50  1  0
  6 20  1  0
  9 20  1  0
 20 51  1  0
  5 21  1  0
 21 52  1  0
 21 53  1  0
 21 22  1  0
 22 23  2  0
 23 54  1  0
 23 24  1  0
 24 55  1  0
 24 25  2  0
 25 56  1  0
 25 26  1  0
 26 57  1  0
 22 27  1  0
 26 27  2  0
 27 58  1  0
  1 28  2  0
 28 59  1  0
 28 29  1  0
 29 30  2  0
 30 60  1  0
 30 31  1  0
 31 32  1  0
 31 33  2  0
 33 61  1  0
 33 34  1  0
 34 62  1  0
 29 35  1  0
 34 35  2  0
 35 36  1  0
 36 37  1  0
 37 38  2  0
 38 39  1  0
 36 40  1  0
 39 40  2  0
 40 63  1  0
M  END
>  <conformer_energy>  (1) 
11.93

>  <ligand_smiles>  (1) 
Nc1n[nH]c2cc(-c3cnc([C@H](Cc4ccccc4)NC(=O)/C=C/c4cc(Cl)ccc4-n4cnnn4)[nH]3)ccc12

>  <ligand_conf_name>  (1) 
MOL_0_isomer_0_conf_0

>  <ligand_molecule_name>  (1) 
MOL_0_isomer_0

$$$$
