MOL_0_isomer_0_conf_0
     RDKit          3D

 35 37  0  0  0  0  0  0  0  0999 V2000
   -1.2005   -1.0756    3.9505 C   0  0  0  0  0  0  0  0  0  0  0  0
   -1.5227    0.0899    4.6465 C   0  0  0  0  0  0  0  0  0  0  0  0
   -3.0348    0.1367    5.4856 Cl  0  0  0  0  0  0  0  0  0  0  0  0
   -0.6400    1.1797    4.6694 C   0  0  0  0  0  0  0  0  0  0  0  0
   -1.0326    2.2782    5.3877 O   0  0  0  0  0  0  0  0  0  0  0  0
   -0.1496    3.3908    5.4374 C   0  0  0  0  0  0  0  0  0  0  0  0
    0.5690    1.0793    3.9705 C   0  0  0  0  0  0  0  0  0  0  0  0
    0.9099   -0.0835    3.2467 C   0  0  0  0  0  0  0  0  0  0  0  0
    2.1859   -0.1232    2.5396 C   0  0  0  0  0  0  0  0  0  0  0  0
    3.3112   -0.1720    3.2971 N   0  0  0  0  0  0  0  0  0  0  0  0
    4.5122   -0.2243    2.6818 C   0  0  0  0  0  0  0  0  0  0  0  0
    5.7215   -0.2772    3.5652 C   0  0  0  0  0  0  0  0  0  0  0  0
    4.7283   -0.1894    1.3538 N   0  0  0  0  0  0  0  0  0  0  0  0
    3.5918   -0.1100    0.6499 C   0  0  0  0  0  0  0  0  0  0  0  0
    2.2986   -0.0645    1.1452 C   0  0  0  0  0  0  0  0  0  0  0  0
    1.4407    0.0497    0.0126 C   0  0  0  0  0  0  0  0  0  0  0  0
    0.0144    0.1639    0.0210 C   0  0  0  0  0  0  0  0  0  0  0  0
   -1.1412    0.2674    0.0334 N   0  0  0  0  0  0  0  0  0  0  0  0
    2.2295    0.0473   -1.1292 C   0  0  0  0  0  0  0  0  0  0  0  0
    1.8675    0.1370   -2.5678 C   0  0  0  0  0  0  0  0  0  0  0  0
    3.5370   -0.0567   -0.7151 N   0  0  0  0  0  0  0  0  0  0  0  0
    0.0103   -1.1637    3.2616 C   0  0  0  0  0  0  0  0  0  0  0  0
    0.3581   -2.6538    2.4509 Cl  0  0  0  0  0  0  0  0  0  0  0  0
   -1.8919   -1.9144    3.9487 H   0  0  0  0  0  0  0  0  0  0  0  0
   -0.6209    4.1645    6.0511 H   0  0  0  0  0  0  0  0  0  0  0  0
    0.0122    3.8107    4.4392 H   0  0  0  0  0  0  0  0  0  0  0  0
    0.7990    3.1208    5.9131 H   0  0  0  0  0  0  0  0  0  0  0  0
    1.2833    1.8992    3.9713 H   0  0  0  0  0  0  0  0  0  0  0  0
    5.4957   -0.8073    4.4956 H   0  0  0  0  0  0  0  0  0  0  0  0
    6.0448    0.7393    3.8070 H   0  0  0  0  0  0  0  0  0  0  0  0
    6.5424   -0.7997    3.0646 H   0  0  0  0  0  0  0  0  0  0  0  0
    2.7517    0.0757   -3.2105 H   0  0  0  0  0  0  0  0  0  0  0  0
    1.3639    1.0865   -2.7750 H   0  0  0  0  0  0  0  0  0  0  0  0
    1.1930   -0.6801   -2.8430 H   0  0  0  0  0  0  0  0  0  0  0  0
    4.3559   -0.0820   -1.3071 H   0  0  0  0  0  0  0  0  0  0  0  0
 24  1  1  0
  1  2  2  0
  2  3  1  0
  2  4  1  0
  4  5  1  0
  5  6  1  0
  6 25  1  0
  6 26  1  0
  6 27  1  0
  4  7  2  0
  7 28  1  0
  7  8  1  0
  8  9  1  0
  9 10  2  0
 10 11  1  0
 11 12  1  0
 12 29  1  0
 12 30  1  0
 12 31  1  0
 11 13  2  0
 13 14  1  0
  9 15  1  0
 14 15  2  0
 15 16  1  0
 16 17  1  0
 17 18  3  0
 16 19  2  0
 19 20  1  0
 20 32  1  0
 20 33  1  0
 20 34  1  0
 14 21  1  0
 19 21  1  0
 21 35  1  0
  1 22  1  0
  8 22  2  0
 22 23  1  0
M  END
>  <conformer_energy>  (1) 
47.32

>  <ligand_smiles>  (1) 
COc1cc(-c2nc(C)nc3[nH]c(C)c(C#N)c23)c(Cl)cc1Cl

>  <ligand_conf_name>  (1) 
MOL_0_isomer_0_conf_0

>  <ligand_molecule_name>  (1) 
MOL_0_isomer_0

$$$$
