MOL_0_isomer_0_conf_0
     RDKit          3D

 17 18  0  0  0  0  0  0  0  0999 V2000
    3.5784    0.0156    1.2456 C   0  0  0  0  0  0  0  0  0  0  0  0
    2.1797    0.0184    1.2232 C   0  0  0  0  0  0  0  0  0  0  0  0
    1.4582    0.0064    0.0027 C   0  0  0  0  0  0  0  0  0  0  0  0
   -0.0586    0.0097    0.0042 C   0  0  0  0  0  0  0  0  0  0  0  0
   -0.6351    0.0235    1.1373 O   0  0  0  0  0  0  0  0  0  0  0  0
   -0.6389   -0.0015   -1.1266 O   0  0  0  0  0  1  0  0  0  0  0  0
    2.1738   -0.0085   -1.2096 C   0  0  0  0  0  0  0  0  0  0  0  0
    3.5519   -0.0110   -1.1600 C   0  0  0  0  0  0  0  0  0  0  0  0
    4.2342    0.0008    0.0349 C   0  0  0  0  0  0  0  0  0  0  0  0
    5.5848   -0.0040   -0.1366 O   0  0  0  0  0  0  0  0  0  0  0  0
    5.6682   -0.0201   -1.5756 C   0  0  0  0  0  0  0  0  0  0  0  0
    4.3884   -0.0247   -2.2339 O   0  0  0  0  0  0  0  0  0  0  0  0
    4.1203    0.0248    2.1824 H   0  0  0  0  0  0  0  0  0  0  0  0
    1.6227    0.0300    2.1598 H   0  0  0  0  0  0  0  0  0  0  0  0
    1.6440   -0.0179   -2.1573 H   0  0  0  0  0  0  0  0  0  0  0  0
    6.2230   -0.9143   -1.8827 H   0  0  0  0  0  0  0  0  0  0  0  0
    6.2269    0.8647   -1.9024 H   0  0  0  0  0  0  0  0  0  0  0  0
 13  1  1  0
  1  2  2  0
  2 14  1  0
  2  3  1  0
  3  4  1  0
  4  5  2  0
  4  6  1  0
  3  7  2  0
  7 15  1  0
  7  8  1  0
  1  9  1  0
  8  9  2  0
  9 10  1  0
 10 11  1  0
 11 16  1  0
 11 17  1  0
  8 12  1  0
 11 12  1  0
M  CHG  1   6  -1
M  END
>  <conformer_energy>  (1) 
33.97

>  <ligand_smiles>  (1) 
O=C([O-])c1ccc2c(c1)OCO2

>  <ligand_conf_name>  (1) 
MOL_0_isomer_0_conf_0

>  <ligand_molecule_name>  (1) 
MOL_0_isomer_0

$$$$
