MOL_0_isomer_0_conf_0
     RDKit          3D

 29 30  0  0  0  0  0  0  0  0999 V2000
    7.8071    0.9489    0.9939 O   0  0  0  0  0  0  0  0  0  0  0  0
    6.4496    0.8304    0.9595 C   0  0  0  0  0  0  0  0  0  0  0  0
    5.6952    1.8673    1.4933 C   0  0  0  0  0  0  0  0  0  0  0  0
    4.3008    1.7866    1.4806 C   0  0  0  0  0  0  0  0  0  0  0  0
    3.6573    0.6741    0.9224 C   0  0  0  0  0  0  0  0  0  0  0  0
    2.1898    0.6117    0.9534 C   0  0  0  0  0  0  0  0  0  0  0  0
    1.4449    0.1400   -0.0595 C   0  0  0  0  0  0  0  0  0  0  0  0
   -0.0240    0.0948   -0.0337 C   0  0  0  0  0  0  0  0  0  0  0  0
   -0.7361   -0.2898    1.1104 C   0  0  0  0  0  0  0  0  0  0  0  0
   -2.1276   -0.3468    1.0826 C   0  0  0  0  0  0  0  0  0  0  0  0
   -2.7707   -0.7227    2.2259 O   0  0  0  0  0  0  0  0  0  0  0  0
   -2.8328   -0.0348   -0.0733 C   0  0  0  0  0  0  0  0  0  0  0  0
   -2.1257    0.3329   -1.2116 C   0  0  0  0  0  0  0  0  0  0  0  0
   -2.8443    0.6297   -2.3333 O   0  0  0  0  0  0  0  0  0  0  0  0
   -0.7326    0.3948   -1.2059 C   0  0  0  0  0  0  0  0  0  0  0  0
    4.4369   -0.3689    0.4020 C   0  0  0  0  0  0  0  0  0  0  0  0
    5.8330   -0.2906    0.4151 C   0  0  0  0  0  0  0  0  0  0  0  0
    8.1976    0.1529    0.5979 H   0  0  0  0  0  0  0  0  0  0  0  0
    6.1888    2.7354    1.9204 H   0  0  0  0  0  0  0  0  0  0  0  0
    3.7222    2.6049    1.9031 H   0  0  0  0  0  0  0  0  0  0  0  0
    1.7228    1.0093    1.8517 H   0  0  0  0  0  0  0  0  0  0  0  0
    1.9107   -0.2068   -0.9786 H   0  0  0  0  0  0  0  0  0  0  0  0
   -0.2177   -0.5577    2.0273 H   0  0  0  0  0  0  0  0  0  0  0  0
   -3.7275   -0.7179    2.0568 H   0  0  0  0  0  0  0  0  0  0  0  0
   -3.9160   -0.0751   -0.1079 H   0  0  0  0  0  0  0  0  0  0  0  0
   -2.2283    0.8866   -3.0395 H   0  0  0  0  0  0  0  0  0  0  0  0
   -0.1922    0.6840   -2.1026 H   0  0  0  0  0  0  0  0  0  0  0  0
    3.9648   -1.2589   -0.0072 H   0  0  0  0  0  0  0  0  0  0  0  0
    6.4137   -1.1105    0.0051 H   0  0  0  0  0  0  0  0  0  0  0  0
 18  1  1  0
  1  2  1  0
  2  3  2  0
  3 19  1  0
  3  4  1  0
  4 20  1  0
  4  5  2  0
  5  6  1  0
  6 21  1  0
  6  7  2  0
  7 22  1  0
  7  8  1  0
  8  9  2  0
  9 23  1  0
  9 10  1  0
 10 11  1  0
 11 24  1  0
 10 12  2  0
 12 25  1  0
 12 13  1  0
 13 14  1  0
 14 26  1  0
  8 15  1  0
 13 15  2  0
 15 27  1  0
  5 16  1  0
 16 28  1  0
  2 17  1  0
 16 17  2  0
 17 29  1  0
M  END
>  <conformer_energy>  (1) 
4.64

>  <ligand_smiles>  (1) 
Oc1ccc(/C=C/c2cc(O)cc(O)c2)cc1

>  <ligand_conf_name>  (1) 
MOL_0_isomer_0_conf_0

>  <ligand_molecule_name>  (1) 
MOL_0_isomer_0

$$$$
