MOL_0_isomer_0_conf_0
     RDKit          3D

 44 47  0  0  0  0  0  0  0  0999 V2000
    0.0118   -0.0107   -0.0458 O   0  0  0  0  0  0  0  0  0  0  0  0
    1.3739   -0.0072    0.0053 C   0  0  0  0  0  0  0  0  0  0  0  0
    2.0674   -0.0037   -1.1929 C   0  0  0  0  0  0  0  0  0  0  0  0
    3.4637    0.0036   -1.1848 C   0  0  0  0  0  0  0  0  0  0  0  0
    4.1866    0.0217    0.0219 C   0  0  0  0  0  0  0  0  0  0  0  0
    3.4632   -0.0131    1.2355 C   0  0  0  0  0  0  0  0  0  0  0  0
    2.0560   -0.0119    1.2154 C   0  0  0  0  0  0  0  0  0  0  0  0
    4.1467    0.0023    2.5822 C   0  0  0  0  0  0  0  0  0  0  0  0
    5.6422   -0.2944    2.5250 C   0  0  0  0  0  0  0  0  0  0  0  0
    6.2853    0.4961    1.3839 C   0  0  1  0  0  0  0  0  0  0  0  0
    7.8072    0.3565    1.3580 C   0  0  2  0  0  0  0  0  0  0  0  0
    8.6148    0.7344    2.5971 C   0  0  0  0  0  0  0  0  0  0  0  0
   10.0421    0.9522    2.0610 C   0  0  0  0  0  0  0  0  0  0  0  0
    9.9356    0.8942    0.5238 C   0  0  2  0  0  0  0  0  0  0  0  0
   10.8409    1.7750   -0.1123 O   0  0  0  0  0  0  0  0  0  0  0  0
    8.4512    1.1994    0.2381 C   0  0  2  0  0  0  0  0  0  0  0  0
    8.1766    2.7216    0.3346 C   0  0  0  0  0  0  0  0  0  0  0  0
    7.9339    0.6772   -1.1079 C   0  0  0  0  0  0  0  0  0  0  0  0
    6.3944    0.6907   -1.1748 C   0  0  0  0  0  0  0  0  0  0  0  0
    5.7134   -0.0172    0.0275 C   0  0  2  0  0  0  0  0  0  0  0  0
   -0.3304   -0.0148    0.8627 H   0  0  0  0  0  0  0  0  0  0  0  0
    1.5265   -0.0110   -2.1347 H   0  0  0  0  0  0  0  0  0  0  0  0
    3.9706   -0.0126   -2.1453 H   0  0  0  0  0  0  0  0  0  0  0  0
    1.5090   -0.0166    2.1539 H   0  0  0  0  0  0  0  0  0  0  0  0
    3.6705   -0.7274    3.2483 H   0  0  0  0  0  0  0  0  0  0  0  0
    3.9969    0.9965    3.0227 H   0  0  0  0  0  0  0  0  0  0  0  0
    5.8044   -1.3698    2.3760 H   0  0  0  0  0  0  0  0  0  0  0  0
    6.0907   -0.0353    3.4904 H   0  0  0  0  0  0  0  0  0  0  0  0
    6.0159    1.5512    1.5218 H   0  0  0  0  0  0  0  0  0  0  0  0
    8.0260   -0.7075    1.1665 H   0  0  0  0  0  0  0  0  0  0  0  0
    8.5924   -0.0530    3.3574 H   0  0  0  0  0  0  0  0  0  0  0  0
    8.2357    1.6527    3.0591 H   0  0  0  0  0  0  0  0  0  0  0  0
   10.4486    1.9058    2.4158 H   0  0  0  0  0  0  0  0  0  0  0  0
   10.7174    0.1672    2.4196 H   0  0  0  0  0  0  0  0  0  0  0  0
   10.1847   -0.1206    0.1890 H   0  0  0  0  0  0  0  0  0  0  0  0
   10.7782    2.6463    0.3133 H   0  0  0  0  0  0  0  0  0  0  0  0
    7.1122    2.9646    0.2818 H   0  0  0  0  0  0  0  0  0  0  0  0
    8.5562    3.1568    1.2644 H   0  0  0  0  0  0  0  0  0  0  0  0
    8.6616    3.2535   -0.4923 H   0  0  0  0  0  0  0  0  0  0  0  0
    8.2767   -0.3538   -1.2657 H   0  0  0  0  0  0  0  0  0  0  0  0
    8.3439    1.2672   -1.9363 H   0  0  0  0  0  0  0  0  0  0  0  0
    6.1112    0.1992   -2.1128 H   0  0  0  0  0  0  0  0  0  0  0  0
    6.0323    1.7230   -1.2508 H   0  0  0  0  0  0  0  0  0  0  0  0
    5.9700   -1.0846   -0.0584 H   0  0  0  0  0  0  0  0  0  0  0  0
 21  1  1  0
  1  2  1  0
  2  3  2  0
  3 22  1  0
  3  4  1  0
  4 23  1  0
  4  5  2  0
  5  6  1  0
  2  7  1  0
  6  7  2  0
  7 24  1  0
  6  8  1  0
  8 25  1  0
  8 26  1  0
  8  9  1  0
  9 27  1  0
  9 28  1  0
  9 10  1  0
 10 29  1  1
 10 11  1  0
 11 30  1  6
 11 12  1  0
 12 31  1  0
 12 32  1  0
 12 13  1  0
 13 33  1  0
 13 34  1  0
 13 14  1  0
 14 35  1  6
 14 15  1  0
 15 36  1  0
 11 16  1  0
 14 16  1  0
 16 17  1  1
 17 37  1  0
 17 38  1  0
 17 39  1  0
 16 18  1  0
 18 40  1  0
 18 41  1  0
 18 19  1  0
 19 42  1  0
 19 43  1  0
  5 20  1  0
 10 20  1  0
 19 20  1  0
 20 44  1  6
M  END
>  <conformer_energy>  (1) 
59.15

>  <ligand_smiles>  (1) 
C[C@]12CC[C@@H]3c4ccc(O)cc4CC[C@H]3[C@@H]1CC[C@@H]2O

>  <ligand_conf_name>  (1) 
MOL_0_isomer_0_conf_0

>  <ligand_molecule_name>  (1) 
MOL_0_isomer_0

$$$$
