1MEH - prepared_ligand2_conf_0
     RDKit          3D

 42 43  0  0  0  0  0  0  0  0999 V2000
    0.6483   -2.3556   -0.5344 O   0  0  0  0  0  0  0  0  0  0  0  0
    1.7156   -1.5436   -0.2796 C   0  0  0  0  0  0  0  0  0  0  0  0
    2.9848   -2.0615   -0.0954 C   0  0  0  0  0  0  0  0  0  0  0  0
    4.0886   -1.2741    0.1621 C   0  0  0  0  0  0  0  0  0  0  0  0
    3.9692    0.1090    0.2155 C   0  0  0  0  0  0  0  0  0  0  0  0
    5.1596    0.9814    0.4848 C   0  0  0  0  0  0  0  0  0  0  0  0
    2.6874    0.6580   -0.0199 C   0  0  0  0  0  0  0  0  0  0  0  0
    2.5588    2.0256   -0.0052 O   0  0  0  0  0  0  0  0  0  0  0  0
    2.6643    2.5533   -1.3301 C   0  0  0  0  0  0  0  0  0  0  0  0
    1.5397   -0.1536   -0.1985 C   0  0  0  0  0  0  0  0  0  0  0  0
    0.1436    0.4378   -0.1737 C   0  0  0  0  0  0  0  0  0  0  0  0
   -0.5557    0.1510    1.1312 C   0  0  0  0  0  0  0  0  0  0  0  0
   -0.4969    0.8687    2.2727 C   0  0  0  0  0  0  0  0  0  0  0  0
    0.2546    2.1674    2.4259 C   0  0  0  0  0  0  0  0  0  0  0  0
   -1.1741    0.3634    3.5367 C   0  0  0  0  0  0  0  0  0  0  0  0
   -0.1968   -0.2990    4.5042 C   0  0  0  0  0  0  0  0  0  0  0  0
    0.5218    0.6855    5.4221 C   0  0  0  0  0  0  0  0  0  0  0  0
   -0.2213    1.4882    6.0581 O   0  0  0  0  0  0  0  0  0  0  0  0
    1.7797    0.5580    5.4633 O   0  0  0  0  0  0  0  0  0  0  0  0
    5.2634   -2.1507    0.3550 C   0  0  0  0  0  0  0  0  0  0  0  0
    4.7443   -3.4779    0.1232 O   0  0  0  0  0  0  0  0  0  0  0  0
    3.4001   -3.4515   -0.1205 C   0  0  0  0  0  0  0  0  0  0  0  0
    2.6656   -4.3976   -0.3421 O   0  0  0  0  0  0  0  0  0  0  0  0
    0.9230   -3.2821   -0.3652 H   0  0  0  0  0  0  0  0  0  0  0  0
    5.6040    1.3033   -0.4585 H   0  0  0  0  0  0  0  0  0  0  0  0
    5.9193    0.4433    1.0655 H   0  0  0  0  0  0  0  0  0  0  0  0
    4.8814    1.8641    1.0692 H   0  0  0  0  0  0  0  0  0  0  0  0
    2.7492    3.6372   -1.2454 H   0  0  0  0  0  0  0  0  0  0  0  0
    1.7684    2.3340   -1.9182 H   0  0  0  0  0  0  0  0  0  0  0  0
    3.5533    2.1911   -1.8551 H   0  0  0  0  0  0  0  0  0  0  0  0
   -0.4460    0.0073   -0.9954 H   0  0  0  0  0  0  0  0  0  0  0  0
    0.1519    1.5110   -0.3797 H   0  0  0  0  0  0  0  0  0  0  0  0
   -1.1177   -0.7865    1.1402 H   0  0  0  0  0  0  0  0  0  0  0  0
   -0.2967    2.8552    3.0806 H   0  0  0  0  0  0  0  0  0  0  0  0
    0.3782    2.6903    1.4770 H   0  0  0  0  0  0  0  0  0  0  0  0
    1.2444    1.9889    2.8600 H   0  0  0  0  0  0  0  0  0  0  0  0
   -1.9321   -0.3849    3.2605 H   0  0  0  0  0  0  0  0  0  0  0  0
   -1.7309    1.1844    4.0083 H   0  0  0  0  0  0  0  0  0  0  0  0
    0.5316   -0.9146    3.9622 H   0  0  0  0  0  0  0  0  0  0  0  0
   -0.7525   -0.9794    5.1609 H   0  0  0  0  0  0  0  0  0  0  0  0
    5.6530   -2.1032    1.3750 H   0  0  0  0  0  0  0  0  0  0  0  0
    6.0513   -1.9538   -0.3750 H   0  0  0  0  0  0  0  0  0  0  0  0
 24  1  1  0
  1  2  1  0
  2  3  2  0
  3  4  1  0
  4  5  2  0
  5  6  1  0
  6 25  1  0
  6 26  1  0
  6 27  1  0
  5  7  1  0
  7  8  1  0
  8  9  1  0
  9 28  1  0
  9 29  1  0
  9 30  1  0
  2 10  1  0
  7 10  2  0
 10 11  1  0
 11 31  1  0
 11 32  1  0
 11 12  1  0
 12 33  1  0
 12 13  2  0
 13 14  1  0
 14 34  1  0
 14 35  1  0
 14 36  1  0
 13 15  1  0
 15 37  1  0
 15 38  1  0
 15 16  1  0
 16 39  1  0
 16 40  1  0
 16 17  1  0
 17 18  2  0
 17 19  1  0
  4 20  1  0
 20 41  1  0
 20 42  1  0
 20 21  1  0
  3 22  1  0
 21 22  1  0
 22 23  2  0
M  CHG  1  19  -1
M  END
>  <conformer_energy>  (1) 
51.67

>  <ligand_smiles>  (1) 
COc1c(C)c2c(c(O)c1C/C=C(\C)CCC(=O)[O-])C(=O)OC2

>  <ligand_conf_name>  (1) 
1MEH - prepared_ligand2_conf_0

>  <ligand_molecule_name>  (1) 
1MEH - prepared_ligand2

$$$$
