MOL_0_isomer_0_chiral_N_isomer_0_conf_0
     RDKit          3D

 29 30  0  0  0  0  0  0  0  0999 V2000
   -0.2292    0.7570    1.8070 O   0  0  0  0  0  0  0  0  0  0  0  0
    0.0077    0.5019    0.4287 C   0  0  0  0  0  0  0  0  0  0  0  0
    1.5002    0.2183    0.2002 C   0  0  2  0  0  0  0  0  0  0  0  0
    1.9409   -1.0514    0.9351 C   0  0  1  0  0  0  0  0  0  0  0  0
    1.2520   -2.2028    0.4246 O   0  0  0  0  0  0  0  0  0  0  0  0
    3.4418   -1.3020    0.7704 C   0  0  2  0  0  0  0  0  0  0  0  0
    3.8183   -2.4802    1.5002 O   0  0  0  0  0  0  0  0  0  0  0  0
    4.2653   -0.1278    1.2948 C   0  0  1  0  0  0  0  0  0  0  0  0
    5.6536   -0.4032    1.0758 O   0  0  0  0  0  0  0  0  0  0  0  0
    3.8723    1.2092    0.6641 C   0  0  2  0  0  0  0  0  0  0  0  0
    2.3461    1.4434    0.6108 C   0  0  1  0  0  0  0  0  0  0  0  0
    2.1509    2.4733   -0.3706 O   0  0  0  0  0  0  0  0  0  0  0  0
    3.3171    2.4380   -1.5114 S   0  0  0  0  0  6  0  0  0  0  0  0
    2.8184    1.7227   -2.6615 O   0  0  0  0  0  0  0  0  0  0  0  0
    3.9389    3.7347   -1.5850 O   0  0  0  0  0  0  0  0  0  0  0  0
    4.3686    1.3795   -0.7308 N   0  0  0  0  0  0  0  0  0  0  0  0
   -1.1898    0.8858    1.9111 H   0  0  0  0  0  0  0  0  0  0  0  0
   -0.6062   -0.3509    0.1213 H   0  0  0  0  0  0  0  0  0  0  0  0
   -0.3145    1.3774   -0.1446 H   0  0  0  0  0  0  0  0  0  0  0  0
    1.6057    0.0444   -0.8789 H   0  0  0  0  0  0  0  0  0  0  0  0
    1.6964   -0.9975    2.0025 H   0  0  0  0  0  0  0  0  0  0  0  0
    1.3632   -2.2377   -0.5428 H   0  0  0  0  0  0  0  0  0  0  0  0
    3.6879   -1.5142   -0.2770 H   0  0  0  0  0  0  0  0  0  0  0  0
    3.0788   -3.1133    1.3915 H   0  0  0  0  0  0  0  0  0  0  0  0
    4.1331   -0.0580    2.3822 H   0  0  0  0  0  0  0  0  0  0  0  0
    5.7966   -1.3107    1.4142 H   0  0  0  0  0  0  0  0  0  0  0  0
    4.3460    2.0230    1.2308 H   0  0  0  0  0  0  0  0  0  0  0  0
    2.0206    1.8298    1.5831 H   0  0  0  0  0  0  0  0  0  0  0  0
    4.5496    0.5355   -1.2708 H   0  0  0  0  0  0  0  0  0  0  0  0
 17  1  1  0
  1  2  1  0
  2 18  1  0
  2 19  1  0
  2  3  1  0
  3 20  1  6
  3  4  1  0
  4 21  1  1
  4  5  1  0
  5 22  1  0
  4  6  1  0
  6 23  1  6
  6  7  1  0
  7 24  1  0
  6  8  1  0
  8 25  1  1
  8  9  1  0
  9 26  1  0
  8 10  1  0
 10 27  1  1
  3 11  1  0
 10 11  1  0
 11 28  1  1
 11 12  1  0
 12 13  1  0
 13 14  2  0
 13 15  2  0
 10 16  1  0
 13 16  1  0
 16 29  1  6
M  END
>  <conformer_energy>  (1) 
-36.74

>  <ligand_smiles>  (1) 
O=S1(=O)N[C@@H]2[C@H](O)[C@@H](O)[C@H](O)[C@@H](CO)[C@@H]2O1

>  <ligand_conf_name>  (1) 
MOL_0_isomer_0_chiral_N_isomer_0_conf_0

>  <ligand_molecule_name>  (1) 
MOL_0_isomer_0_chiral_N_isomer_0

$$$$
MOL_0_isomer_0_chiral_N_isomer_1_conf_0
     RDKit          3D

 29 30  0  0  0  0  0  0  0  0999 V2000
   -0.3180    0.5546    1.6899 O   0  0  0  0  0  0  0  0  0  0  0  0
    0.0082    0.4984    0.3067 C   0  0  0  0  0  0  0  0  0  0  0  0
    1.5153    0.2628    0.1344 C   0  0  2  0  0  0  0  0  0  0  0  0
    1.9302   -1.1058    0.6935 C   0  0  1  0  0  0  0  0  0  0  0  0
    1.3110   -2.1656   -0.0525 O   0  0  0  0  0  0  0  0  0  0  0  0
    3.4477   -1.3246    0.6367 C   0  0  2  0  0  0  0  0  0  0  0  0
    3.7772   -2.5844    1.2449 O   0  0  0  0  0  0  0  0  0  0  0  0
    4.1898   -0.2220    1.3871 C   0  0  1  0  0  0  0  0  0  0  0  0
    5.6055   -0.4303    1.2903 O   0  0  0  0  0  0  0  0  0  0  0  0
    3.8319    1.1631    0.8657 C   0  0  2  0  0  0  0  0  0  0  0  0
    2.3146    1.4180    0.7792 C   0  0  1  0  0  0  0  0  0  0  0  0
    2.1824    2.5868   -0.0513 O   0  0  0  0  0  0  0  0  0  0  0  0
    3.4335    2.7134   -1.0957 S   0  0  0  0  0  6  0  0  0  0  0  0
    2.9798    2.4023   -2.4277 O   0  0  0  0  0  0  0  0  0  0  0  0
    4.1993    3.8897   -0.7669 O   0  0  0  0  0  0  0  0  0  0  0  0
    4.3240    1.3841   -0.5310 N   0  0  0  0  0  0  0  0  0  0  0  0
   -1.2867    0.6449    1.7481 H   0  0  0  0  0  0  0  0  0  0  0  0
   -0.5715   -0.3070   -0.1560 H   0  0  0  0  0  0  0  0  0  0  0  0
   -0.2927    1.4441   -0.1562 H   0  0  0  0  0  0  0  0  0  0  0  0
    1.6902    0.2574   -0.9502 H   0  0  0  0  0  0  0  0  0  0  0  0
    1.5895   -1.2250    1.7288 H   0  0  0  0  0  0  0  0  0  0  0  0
    1.5444   -2.0598   -0.9932 H   0  0  0  0  0  0  0  0  0  0  0  0
    3.7948   -1.3988   -0.4007 H   0  0  0  0  0  0  0  0  0  0  0  0
    3.0791   -3.2086    0.9588 H   0  0  0  0  0  0  0  0  0  0  0  0
    3.9450   -0.2820    2.4550 H   0  0  0  0  0  0  0  0  0  0  0  0
    5.7329   -1.3884    1.4495 H   0  0  0  0  0  0  0  0  0  0  0  0
    4.3195    1.9252    1.4893 H   0  0  0  0  0  0  0  0  0  0  0  0
    1.9341    1.6568    1.7781 H   0  0  0  0  0  0  0  0  0  0  0  0
    5.3266    1.5895   -0.5554 H   0  0  0  0  0  0  0  0  0  0  0  0
 17  1  1  0
  1  2  1  0
  2 18  1  0
  2 19  1  0
  2  3  1  0
  3 20  1  6
  3  4  1  0
  4 21  1  1
  4  5  1  0
  5 22  1  0
  4  6  1  0
  6 23  1  6
  6  7  1  0
  7 24  1  0
  6  8  1  0
  8 25  1  1
  8  9  1  0
  9 26  1  0
  8 10  1  0
 10 27  1  1
  3 11  1  0
 10 11  1  0
 11 28  1  1
 11 12  1  0
 12 13  1  0
 13 14  2  0
 13 15  2  0
 10 16  1  0
 13 16  1  0
 16 29  1  1
M  END
>  <conformer_energy>  (2) 
-43.48

>  <ligand_smiles>  (2) 
O=S1(=O)N[C@@H]2[C@H](O)[C@@H](O)[C@H](O)[C@@H](CO)[C@@H]2O1

>  <ligand_conf_name>  (2) 
MOL_0_isomer_0_chiral_N_isomer_1_conf_0

>  <ligand_molecule_name>  (2) 
MOL_0_isomer_0_chiral_N_isomer_1

$$$$
