MOL_0_isomer_0_conf_0
     RDKit          3D

 34 36  0  0  0  0  0  0  0  0999 V2000
    8.1775   -0.6505    0.4867 C   0  0  0  0  0  0  0  0  0  0  0  0
    7.5620    0.0043    1.4913 N   0  0  0  0  0  0  0  0  0  0  0  0
    6.2315    0.2364    1.3470 C   0  0  0  0  0  0  0  0  0  0  0  0
    5.4836   -0.1163    0.2223 C   0  0  0  0  0  0  0  0  0  0  0  0
    4.0820    0.1579    0.1276 N   0  0  0  0  0  0  0  0  0  0  0  0
    3.2415   -0.1344    1.2181 C   0  0  0  0  0  0  0  0  0  0  0  0
    3.6866   -0.5220    2.2972 O   0  0  0  0  0  0  0  0  0  0  0  0
    1.8828   -0.0428    1.0607 N   0  0  0  0  0  0  0  0  0  0  0  0
    1.3323    0.3442   -0.0470 C   0  0  0  0  0  0  0  0  0  0  0  0
   -0.0558    0.3245   -0.1528 N   0  0  0  0  0  0  0  0  0  0  0  0
   -0.8503    0.6541    1.0306 C   0  0  0  0  0  0  0  0  0  0  0  0
   -0.6992   -0.6343   -1.0485 C   0  0  0  0  0  0  0  0  0  0  0  0
    2.1545    0.8293   -1.1828 C   0  0  0  0  0  0  0  0  0  0  0  0
    1.5625    1.4503   -2.2948 C   0  0  0  0  0  0  0  0  0  0  0  0
    2.3574    1.9558   -3.3203 C   0  0  0  0  0  0  0  0  0  0  0  0
    3.7394    1.8722   -3.2114 C   0  0  0  0  0  0  0  0  0  0  0  0
    4.7323    2.5285   -4.4539 Cl  0  0  0  0  0  0  0  0  0  0  0  0
    4.3304    1.2818   -2.0910 C   0  0  0  0  0  0  0  0  0  0  0  0
    3.5428    0.7253   -1.0655 C   0  0  0  0  0  0  0  0  0  0  0  0
    6.1653   -0.8129   -0.7851 C   0  0  0  0  0  0  0  0  0  0  0  0
    7.5281   -1.0800   -0.6570 C   0  0  0  0  0  0  0  0  0  0  0  0
    9.2379   -0.8345    0.6341 H   0  0  0  0  0  0  0  0  0  0  0  0
    5.7829    0.7596    2.1879 H   0  0  0  0  0  0  0  0  0  0  0  0
   -1.8795    0.8987    0.7472 H   0  0  0  0  0  0  0  0  0  0  0  0
   -0.4357    1.5290    1.5430 H   0  0  0  0  0  0  0  0  0  0  0  0
   -0.8730   -0.1878    1.7306 H   0  0  0  0  0  0  0  0  0  0  0  0
   -0.8465   -1.5912   -0.5361 H   0  0  0  0  0  0  0  0  0  0  0  0
   -0.1024   -0.8252   -1.9456 H   0  0  0  0  0  0  0  0  0  0  0  0
   -1.6750   -0.2577   -1.3724 H   0  0  0  0  0  0  0  0  0  0  0  0
    0.4841    1.5682   -2.3581 H   0  0  0  0  0  0  0  0  0  0  0  0
    1.8961    2.4345   -4.1802 H   0  0  0  0  0  0  0  0  0  0  0  0
    5.4140    1.3095   -2.0237 H   0  0  0  0  0  0  0  0  0  0  0  0
    5.6403   -1.1853   -1.6607 H   0  0  0  0  0  0  0  0  0  0  0  0
    8.0666   -1.6218   -1.4266 H   0  0  0  0  0  0  0  0  0  0  0  0
 22  1  1  0
  1  2  2  0
  2  3  1  0
  3 23  1  0
  3  4  2  0
  4  5  1  0
  5  6  1  0
  6  7  2  0
  6  8  1  0
  8  9  2  0
  9 10  1  0
 10 11  1  0
 11 24  1  0
 11 25  1  0
 11 26  1  0
 10 12  1  0
 12 27  1  0
 12 28  1  0
 12 29  1  0
  9 13  1  0
 13 14  1  0
 14 30  1  0
 14 15  2  0
 15 31  1  0
 15 16  1  0
 16 17  1  0
 16 18  2  0
 18 32  1  0
 13 19  2  0
  5 19  1  0
 18 19  1  0
  4 20  1  0
 20 33  1  0
  1 21  1  0
 20 21  2  0
 21 34  1  0
M  END
>  <conformer_energy>  (1) 
38.87

>  <ligand_smiles>  (1) 
CN(C)c1nc(=O)n(-c2cccnc2)c2cc(Cl)ccc12

>  <ligand_conf_name>  (1) 
MOL_0_isomer_0_conf_0

>  <ligand_molecule_name>  (1) 
MOL_0_isomer_0

$$$$
