1IA1 - prepared_ligand4_conf_0
     RDKit          3D

 32 34  0  0  0  0  0  0  0  0999 V2000
   -2.6495    0.3208   -1.1328 C   0  0  0  0  0  0  0  0  0  0  0  0
   -1.9852   -0.8169   -1.5883 C   0  0  0  0  0  0  0  0  0  0  0  0
   -0.6751   -1.0714   -1.1761 C   0  0  0  0  0  0  0  0  0  0  0  0
   -0.0281   -0.1936   -0.3012 C   0  0  0  0  0  0  0  0  0  0  0  0
    1.6405   -0.5341    0.2375 S   0  0  0  0  0  0  0  0  0  0  0  0
    1.3025   -1.3011    1.8299 C   0  0  0  0  0  0  0  0  0  0  0  0
    0.9324   -2.6601    1.7797 C   0  0  0  0  0  0  0  0  0  0  0  0
    0.6520   -3.3719    2.9402 C   0  0  0  0  0  0  0  0  0  0  0  0
    0.7381   -2.7312    4.1702 C   0  0  0  0  0  0  0  0  0  0  0  0
    1.1057   -1.3749    4.2454 C   0  0  0  0  0  0  0  0  0  0  0  0
    1.4137   -0.6223    3.0897 C   0  0  0  0  0  0  0  0  0  0  0  0
    1.8049    0.7197    3.3463 C   0  0  0  0  0  0  0  0  0  0  0  0
    2.1195    1.6130    2.3517 N   0  0  0  0  0  0  0  0  0  0  0  0
    1.8410    1.2606    4.5779 N   0  0  0  0  0  0  0  0  0  0  0  0
    1.5173    0.4722    5.6019 C   0  0  0  0  0  0  0  0  0  0  0  0
    1.5385    1.0106    6.8560 N   0  0  0  0  0  0  0  0  0  0  0  0
    1.1683   -0.7980    5.4541 N   0  0  0  0  0  0  0  0  0  0  0  0
   -0.6970    0.9520    0.1432 C   0  0  0  0  0  0  0  0  0  0  0  0
   -2.0047    1.2085   -0.2710 C   0  0  0  0  0  0  0  0  0  0  0  0
   -3.6657    0.5235   -1.4631 H   0  0  0  0  0  0  0  0  0  0  0  0
   -2.4851   -1.5013   -2.2694 H   0  0  0  0  0  0  0  0  0  0  0  0
   -0.1693   -1.9609   -1.5439 H   0  0  0  0  0  0  0  0  0  0  0  0
    0.8600   -3.1803    0.8211 H   0  0  0  0  0  0  0  0  0  0  0  0
    0.3603   -4.4174    2.8771 H   0  0  0  0  0  0  0  0  0  0  0  0
    0.5086   -3.3050    5.0652 H   0  0  0  0  0  0  0  0  0  0  0  0
    2.3816    2.5471    2.6424 H   0  0  0  0  0  0  0  0  0  0  0  0
    2.4864    1.2806    1.4665 H   0  0  0  0  0  0  0  0  0  0  0  0
    1.3263    0.5506    7.7243 H   0  0  0  0  0  0  0  0  0  0  0  0
    1.8086    1.9895    6.8920 H   0  0  0  0  0  0  0  0  0  0  0  0
    0.9455   -1.3195    6.2911 H   0  0  0  0  0  0  0  0  0  0  0  0
   -0.2097    1.6612    0.8038 H   0  0  0  0  0  0  0  0  0  0  0  0
   -2.5175    2.1039    0.0665 H   0  0  0  0  0  0  0  0  0  0  0  0
 20  1  1  0
  1  2  2  0
  2 21  1  0
  2  3  1  0
  3 22  1  0
  3  4  2  0
  4  5  1  0
  5  6  1  0
  6  7  2  0
  7 23  1  0
  7  8  1  0
  8 24  1  0
  8  9  2  0
  9 25  1  0
  9 10  1  0
  6 11  1  0
 10 11  2  0
 11 12  1  0
 12 13  1  0
 13 26  1  0
 13 27  1  0
 12 14  2  0
 14 15  1  0
 15 16  1  0
 16 28  1  0
 16 29  1  0
 10 17  1  0
 15 17  2  0
 17 30  1  0
  4 18  1  0
 18 31  1  0
  1 19  1  0
 18 19  2  0
 19 32  1  0
M  CHG  1  17   1
M  END
>  <conformer_energy>  (1) 
-52.22

>  <ligand_smiles>  (1) 
Nc1nc(N)c2c(Sc3ccccc3)cccc2[nH+]1

>  <ligand_conf_name>  (1) 
1IA1 - prepared_ligand4_conf_0

>  <ligand_molecule_name>  (1) 
1IA1 - prepared_ligand4

>  <fragInfo>  (1) 
6 7 8 9 10 11 12 13 14 15 16 17 23 24 25 26 27 28 29 30
1 2 3 4 18 19 20 21 22 31 32
5


>  <torsionInfo>  (1) 
5 6 2 0
4 5 1 2


>  <atomInfo>  (1) 
1  -0.062189 A 
2  -0.061142 A 
3  -0.048236 A 
4  0.012210  A 
5  -0.089137 SA
6  0.028228  A 
7  -0.047169 A 
8  -0.057617 A 
9  -0.022236 A 
10 0.112737  A 
11 0.087008  A 
12 0.215497  A 
13 -0.369252 N 
14 -0.053341 NA
15 0.388963  A 
16 -0.287339 N 
17 -0.241562 N 
18 -0.048236 A 
19 -0.061142 A 
20 0.062270  H 
21 0.062309  H 
22 0.063464  H 
23 0.063494  H 
24 0.062440  H 
25 0.065997  H 
26 0.159212  HD
27 0.159212  HD
28 0.256427  HD
29 0.256427  HD
30 0.266930  HD
31 0.063464  H 
32 0.062309  H 


$$$$
