MOL_0_isomer_0_chiral_N_isomer_0_conf_0
     RDKit          3D

 38 40  0  0  0  0  0  0  0  0999 V2000
   -3.9202    1.0016    1.6200 C   0  0  0  0  0  0  0  0  0  0  0  0
   -4.1686    1.1598    2.9297 N   0  0  0  0  0  0  0  0  0  0  0  0
   -3.2156    0.7235    3.7789 C   0  0  0  0  0  0  0  0  0  0  0  0
   -2.0021    0.1519    3.3887 C   0  0  0  0  0  0  0  0  0  0  0  0
   -1.0802   -0.2914    4.3532 C   0  0  0  0  0  0  0  0  0  0  0  0
    0.1212   -0.8814    3.9762 C   0  0  0  0  0  0  0  0  0  0  0  0
    0.4259   -1.0106    2.6278 C   0  0  0  0  0  0  0  0  0  0  0  0
   -0.4716   -0.5440    1.6487 C   0  0  0  0  0  0  0  0  0  0  0  0
    0.0718   -0.7110   -0.0356 S   0  0  0  0  0  6  0  0  0  0  0  0
   -0.5822    0.2379   -0.9086 O   0  0  0  0  0  0  0  0  0  0  0  0
    0.0858   -2.1273   -0.3254 O   0  0  0  0  0  0  0  0  0  0  0  0
    1.7442   -0.1841   -0.0072 N   0  0  0  0  0  0  0  0  0  0  0  0
    2.4990   -0.8740   -1.1251 C   0  0  0  0  0  0  0  0  0  0  0  0
    3.9922   -0.5369   -1.0849 C   0  0  0  0  0  0  0  0  0  0  0  0
    4.1870    0.9506   -1.1382 N   0  0  0  0  0  4  0  0  0  0  0  0
    3.4669    1.6537   -0.0222 C   0  0  0  0  0  0  0  0  0  0  0  0
    1.9510    1.3289   -0.0508 C   0  0  2  0  0  0  0  0  0  0  0  0
    1.3011    2.0631    1.1165 C   0  0  0  0  0  0  0  0  0  0  0  0
   -1.7298    0.0206    2.0056 C   0  0  0  0  0  0  0  0  0  0  0  0
   -2.7488    0.4496    1.1206 C   0  0  0  0  0  0  0  0  0  0  0  0
   -4.7111    1.3349    0.9530 H   0  0  0  0  0  0  0  0  0  0  0  0
   -3.4696    0.8487    4.8295 H   0  0  0  0  0  0  0  0  0  0  0  0
   -1.3077   -0.1967    5.4148 H   0  0  0  0  0  0  0  0  0  0  0  0
    0.8100   -1.2446    4.7358 H   0  0  0  0  0  0  0  0  0  0  0  0
    1.3620   -1.4858    2.3427 H   0  0  0  0  0  0  0  0  0  0  0  0
    2.4103   -1.9598   -1.0196 H   0  0  0  0  0  0  0  0  0  0  0  0
    2.0737   -0.5745   -2.0905 H   0  0  0  0  0  0  0  0  0  0  0  0
    4.5219   -0.9580   -1.9442 H   0  0  0  0  0  0  0  0  0  0  0  0
    4.4618   -0.8859   -0.1592 H   0  0  0  0  0  0  0  0  0  0  0  0
    5.1918    1.1658   -1.0877 H   0  0  0  0  0  0  0  0  0  0  0  0
    3.8602    1.3119   -2.0453 H   0  0  0  0  0  0  0  0  0  0  0  0
    3.6527    2.7234   -0.1616 H   0  0  0  0  0  0  0  0  0  0  0  0
    3.9368    1.3238    0.9112 H   0  0  0  0  0  0  0  0  0  0  0  0
    1.5422    1.7098   -0.9956 H   0  0  0  0  0  0  0  0  0  0  0  0
    0.2112    2.0453    1.0503 H   0  0  0  0  0  0  0  0  0  0  0  0
    1.5901    3.1204    1.1165 H   0  0  0  0  0  0  0  0  0  0  0  0
    1.6029    1.6377    2.0785 H   0  0  0  0  0  0  0  0  0  0  0  0
   -2.6728    0.3535    0.0438 H   0  0  0  0  0  0  0  0  0  0  0  0
 21  1  1  0
  1  2  2  0
  2  3  1  0
  3 22  1  0
  3  4  2  0
  4  5  1  0
  5 23  1  0
  5  6  2  0
  6 24  1  0
  6  7  1  0
  7 25  1  0
  7  8  2  0
  8  9  1  0
  9 10  2  0
  9 11  2  0
 12  9  1  6
 12 13  1  0
 13 26  1  0
 13 27  1  0
 13 14  1  0
 14 28  1  0
 14 29  1  0
 14 15  1  0
 15 30  1  0
 15 31  1  0
 15 16  1  0
 16 32  1  0
 16 33  1  0
 12 17  1  0
 16 17  1  0
 17 34  1  6
 17 18  1  0
 18 35  1  0
 18 36  1  0
 18 37  1  0
  4 19  1  0
  8 19  1  0
  1 20  1  0
 19 20  2  0
 20 38  1  0
M  CHG  1  15   1
M  END
>  <conformer_energy>  (1) 
70.63

>  <ligand_smiles>  (1) 
C[C@H]1C[NH2+]CCN1S(=O)(=O)c1cccc2cnccc12

>  <ligand_conf_name>  (1) 
MOL_0_isomer_0_chiral_N_isomer_0_conf_0

>  <ligand_molecule_name>  (1) 
MOL_0_isomer_0_chiral_N_isomer_0

$$$$
MOL_0_isomer_0_chiral_N_isomer_1_conf_0
     RDKit          3D

 38 40  0  0  0  0  0  0  0  0999 V2000
   -3.7868    1.0659    1.4884 C   0  0  0  0  0  0  0  0  0  0  0  0
   -3.9594    1.5056    2.7445 N   0  0  0  0  0  0  0  0  0  0  0  0
   -3.0121    1.1560    3.6383 C   0  0  0  0  0  0  0  0  0  0  0  0
   -1.8716    0.4069    3.3384 C   0  0  0  0  0  0  0  0  0  0  0  0
   -0.9513    0.0824    4.3504 C   0  0  0  0  0  0  0  0  0  0  0  0
    0.1802   -0.6755    4.0720 C   0  0  0  0  0  0  0  0  0  0  0  0
    0.4160   -1.0958    2.7704 C   0  0  0  0  0  0  0  0  0  0  0  0
   -0.4825   -0.7601    1.7383 C   0  0  0  0  0  0  0  0  0  0  0  0
    0.0084   -1.2957    0.1116 S   0  0  0  0  0  6  0  0  0  0  0  0
   -0.7385   -0.6100   -0.9177 O   0  0  0  0  0  0  0  0  0  0  0  0
    0.1354   -2.7344    0.1436 O   0  0  0  0  0  0  0  0  0  0  0  0
    1.6084   -0.6554   -0.0193 N   0  0  0  0  0  0  0  0  0  0  0  0
    1.6648    0.8401   -0.1191 C   0  0  0  0  0  0  0  0  0  0  0  0
    3.1137    1.3356   -0.0001 C   0  0  0  0  0  0  0  0  0  0  0  0
    3.9948    0.6422   -1.0058 N   0  0  0  0  0  4  0  0  0  0  0  0
    3.9422   -0.8596   -0.8757 C   0  0  0  0  0  0  0  0  0  0  0  0
    2.4920   -1.3800   -1.0083 C   0  0  2  0  0  0  0  0  0  0  0  0
    1.9900   -1.2698   -2.4483 C   0  0  0  0  0  0  0  0  0  0  0  0
   -1.6722   -0.0218    2.0028 C   0  0  0  0  0  0  0  0  0  0  0  0
   -2.6914    0.3179    1.0792 C   0  0  0  0  0  0  0  0  0  0  0  0
   -4.5769    1.3303    0.7901 H   0  0  0  0  0  0  0  0  0  0  0  0
   -3.2073    1.5091    4.6489 H   0  0  0  0  0  0  0  0  0  0  0  0
   -1.1265    0.4047    5.3767 H   0  0  0  0  0  0  0  0  0  0  0  0
    0.8666   -0.9429    4.8724 H   0  0  0  0  0  0  0  0  0  0  0  0
    1.2973   -1.7002    2.5629 H   0  0  0  0  0  0  0  0  0  0  0  0
    1.2385    1.1718   -1.0717 H   0  0  0  0  0  0  0  0  0  0  0  0
    1.0832    1.2935    0.6893 H   0  0  0  0  0  0  0  0  0  0  0  0
    3.5327    1.1166    0.9877 H   0  0  0  0  0  0  0  0  0  0  0  0
    3.1883    2.4087   -0.1980 H   0  0  0  0  0  0  0  0  0  0  0  0
    3.7212    0.9197   -1.9582 H   0  0  0  0  0  0  0  0  0  0  0  0
    4.9660    0.9588   -0.8835 H   0  0  0  0  0  0  0  0  0  0  0  0
    4.3574   -1.0970    0.1100 H   0  0  0  0  0  0  0  0  0  0  0  0
    4.6003   -1.2680   -1.6487 H   0  0  0  0  0  0  0  0  0  0  0  0
    2.5206   -2.4405   -0.7300 H   0  0  0  0  0  0  0  0  0  0  0  0
    1.0256   -1.7711   -2.5736 H   0  0  0  0  0  0  0  0  0  0  0  0
    2.6925   -1.7532   -3.1360 H   0  0  0  0  0  0  0  0  0  0  0  0
    1.8679   -0.2324   -2.7724 H   0  0  0  0  0  0  0  0  0  0  0  0
   -2.6806    0.0002    0.0436 H   0  0  0  0  0  0  0  0  0  0  0  0
 21  1  1  0
  1  2  2  0
  2  3  1  0
  3 22  1  0
  3  4  2  0
  4  5  1  0
  5 23  1  0
  5  6  2  0
  6 24  1  0
  6  7  1  0
  7 25  1  0
  7  8  2  0
  8  9  1  0
  9 10  2  0
  9 11  2  0
 12  9  1  6
 12 13  1  0
 13 26  1  0
 13 27  1  0
 13 14  1  0
 14 28  1  0
 14 29  1  0
 14 15  1  0
 15 30  1  0
 15 31  1  0
 15 16  1  0
 16 32  1  0
 16 33  1  0
 12 17  1  0
 16 17  1  0
 17 34  1  1
 17 18  1  0
 18 35  1  0
 18 36  1  0
 18 37  1  0
  4 19  1  0
  8 19  1  0
  1 20  1  0
 19 20  2  0
 20 38  1  0
M  CHG  1  15   1
M  END
>  <conformer_energy>  (2) 
68.36

>  <ligand_smiles>  (2) 
C[C@H]1C[NH2+]CCN1S(=O)(=O)c1cccc2cnccc12

>  <ligand_conf_name>  (2) 
MOL_0_isomer_0_chiral_N_isomer_1_conf_0

>  <ligand_molecule_name>  (2) 
MOL_0_isomer_0_chiral_N_isomer_1

$$$$
