MOL_0_isomer_0_conf_0
     RDKit          3D

 30 32  0  0  0  0  0  0  0  0999 V2000
    6.8716    2.2965    5.2234 C   0  0  0  0  0  0  0  0  0  0  0  0
    6.5759    3.4047    6.0186 C   0  0  0  0  0  0  0  0  0  0  0  0
    5.3268    4.0188    5.9182 C   0  0  0  0  0  0  0  0  0  0  0  0
    4.9309    5.5118    7.0088 Br  0  0  0  0  0  0  0  0  0  0  0  0
    4.3715    3.5420    5.0236 C   0  0  0  0  0  0  0  0  0  0  0  0
    4.6750    2.4434    4.2109 C   0  0  0  0  0  0  0  0  0  0  0  0
    3.6363    1.9515    3.2636 C   0  0  0  0  0  0  0  0  0  0  0  0
    2.4686    2.0027    3.6218 O   0  0  0  0  0  0  0  0  0  0  0  0
    4.1286    1.5285    2.0445 N   0  0  0  0  0  0  0  0  0  0  0  0
    3.4110    0.9361    0.9827 C   0  0  0  0  0  0  0  0  0  0  0  0
    4.1337    0.6825   -0.1948 C   0  0  0  0  0  0  0  0  0  0  0  0
    3.5219    0.0875   -1.2990 C   0  0  0  0  0  0  0  0  0  0  0  0
    2.1787   -0.2678   -1.2336 C   0  0  0  0  0  0  0  0  0  0  0  0
    1.4490   -0.0270   -0.0640 C   0  0  0  0  0  0  0  0  0  0  0  0
   -0.0776   -0.4588   -0.0079 C   0  0  0  0  0  0  0  0  0  0  0  0
   -0.8850   -0.2935    1.0668 N   0  0  0  0  0  0  0  0  0  0  0  0
   -2.0787   -0.8050    0.6814 N   0  0  0  0  0  0  0  0  0  0  0  0
   -1.9833   -1.2601   -0.5858 N   0  0  0  0  0  0  0  0  0  0  0  0
   -0.7267   -1.0516   -1.0428 N   0  0  0  0  0  2  0  0  0  0  0  0
    2.0621    0.5782    1.0438 C   0  0  0  0  0  0  0  0  0  0  0  0
    5.9221    1.8115    4.3220 C   0  0  0  0  0  0  0  0  0  0  0  0
    7.8361    1.8032    5.3163 H   0  0  0  0  0  0  0  0  0  0  0  0
    7.3184    3.7743    6.7211 H   0  0  0  0  0  0  0  0  0  0  0  0
    3.3930    4.0127    4.9499 H   0  0  0  0  0  0  0  0  0  0  0  0
    5.1080    1.6951    1.8634 H   0  0  0  0  0  0  0  0  0  0  0  0
    5.1839    0.9489   -0.2709 H   0  0  0  0  0  0  0  0  0  0  0  0
    4.0866   -0.1019   -2.2069 H   0  0  0  0  0  0  0  0  0  0  0  0
    1.6951   -0.7361   -2.0885 H   0  0  0  0  0  0  0  0  0  0  0  0
    1.4657    0.7456    1.9365 H   0  0  0  0  0  0  0  0  0  0  0  0
    6.1508    0.9234    3.7380 H   0  0  0  0  0  0  0  0  0  0  0  0
 22  1  1  0
  1  2  2  0
  2 23  1  0
  2  3  1  0
  3  4  1  0
  3  5  2  0
  5 24  1  0
  5  6  1  0
  6  7  1  0
  7  8  2  0
  7  9  1  0
  9 25  1  0
  9 10  1  0
 10 11  2  0
 11 26  1  0
 11 12  1  0
 12 27  1  0
 12 13  2  0
 13 28  1  0
 13 14  1  0
 14 15  1  0
 15 16  2  0
 16 17  1  0
 17 18  2  0
 15 19  1  0
 18 19  1  0
 10 20  1  0
 14 20  2  0
 20 29  1  0
  1 21  1  0
  6 21  2  0
 21 30  1  0
M  CHG  1  19  -1
M  END
>  <conformer_energy>  (1) 
43.19

>  <ligand_smiles>  (1) 
O=C(Nc1cccc(-c2nnn[n-]2)c1)c1cccc(Br)c1

>  <ligand_conf_name>  (1) 
MOL_0_isomer_0_conf_0

>  <ligand_molecule_name>  (1) 
MOL_0_isomer_0

$$$$
