MOL_0_isomer_0_conf_0
     RDKit          3D

 95 96  0  0  0  0  0  0  0  0999 V2000
   -3.9417    5.0506   -2.3269 C   0  0  0  0  0  0  0  0  0  0  0  0
   -2.6733    4.9519   -1.7541 C   0  0  0  0  0  0  0  0  0  0  0  0
   -2.3047    3.8027   -1.0438 C   0  0  0  0  0  0  0  0  0  0  0  0
   -3.2388    2.7653   -0.8980 C   0  0  0  0  0  0  0  0  0  0  0  0
   -4.5120    2.8480   -1.4838 C   0  0  0  0  0  0  0  0  0  0  0  0
   -4.8544    4.0036   -2.1982 C   0  0  0  0  0  0  0  0  0  0  0  0
   -5.4903    1.7087   -1.3472 C   0  0  0  0  0  0  0  0  0  0  0  0
   -6.5953    2.0530   -0.4796 N   0  0  0  0  0  0  0  0  0  0  0  0
   -6.5107    1.9142    0.8861 C   0  0  0  0  0  0  0  0  0  0  0  0
   -5.5111    1.4939    1.4662 O   0  0  0  0  0  0  0  0  0  0  0  0
   -7.7759    2.3517    1.6363 C   0  0  0  0  0  0  0  0  0  0  0  0
   -7.5451    2.2703    3.0725 N   0  0  0  0  0  0  0  0  0  0  0  0
   -7.9444    1.1871    3.8079 C   0  0  0  0  0  0  0  0  0  0  0  0
   -8.7381    0.3452    3.3784 O   0  0  0  0  0  0  0  0  0  0  0  0
   -7.4952    1.1033    5.2800 C   0  0  2  0  0  0  0  0  0  0  0  0
   -8.5706    1.6812    6.1338 N   0  0  0  0  0  0  0  0  0  0  0  0
   -9.8305    1.2071    6.2146 C   0  0  0  0  0  0  0  0  0  0  0  0
  -10.2931    0.2209    5.4489 N   0  0  0  0  0  0  0  0  0  0  0  0
  -10.6622    1.7424    7.1175 N   0  0  0  0  0  4  0  0  0  0  0  0
   -6.1413    1.7554    5.5995 C   0  0  0  0  0  0  0  0  0  0  0  0
   -4.9826    1.0248    4.9148 C   0  0  0  0  0  0  0  0  0  0  0  0
   -3.6942    1.8495    4.9027 C   0  0  0  0  0  0  0  0  0  0  0  0
   -2.6146    1.1305    4.0975 C   0  0  0  0  0  0  0  0  0  0  0  0
   -1.3845    1.8854    4.0139 N   0  0  0  0  0  0  0  0  0  0  0  0
   -0.3974    1.8033    4.9730 C   0  0  0  0  0  0  0  0  0  0  0  0
   -0.5538    1.1883    6.0256 O   0  0  0  0  0  0  0  0  0  0  0  0
    0.9804    2.3647    4.5343 C   0  0  2  0  0  0  0  0  0  0  0  0
    1.8681    2.7065    5.7421 C   0  0  0  0  0  0  0  0  0  0  0  0
    3.2753    3.1580    5.3399 C   0  0  0  0  0  0  0  0  0  0  0  0
    4.1366    3.4451    6.5700 C   0  0  0  0  0  0  0  0  0  0  0  0
    5.5341    3.8962    6.1767 C   0  0  0  0  0  0  0  0  0  0  0  0
    0.8708    3.4269    3.5307 N   0  0  0  0  0  0  0  0  0  0  0  0
    0.4558    4.7095    3.7870 C   0  0  0  0  0  0  0  0  0  0  0  0
    0.2950    5.1345    4.9331 O   0  0  0  0  0  0  0  0  0  0  0  0
    0.4294    5.6480    2.5463 C   0  0  2  0  0  0  0  0  0  0  0  0
   -0.5809    6.8023    2.6513 C   0  0  0  0  0  0  0  0  0  0  0  0
   -0.5600    7.7190    3.8857 C   0  0  0  0  0  0  0  0  0  0  0  0
    0.7426    8.4686    4.1958 C   0  0  0  0  0  0  0  0  0  0  0  0
    1.8163    7.7520    5.0147 C   0  0  0  0  0  0  0  0  0  0  0  0
    1.2567    7.1298    6.2301 N   0  0  0  0  0  4  0  0  0  0  0  0
    0.2797    4.9333    1.2695 N   0  0  0  0  0  0  0  0  0  0  0  0
   -0.8321    4.1600    0.9861 C   0  0  0  0  0  0  0  0  0  0  0  0
   -1.6228    3.8384    1.8700 O   0  0  0  0  0  0  0  0  0  0  0  0
   -0.9239    3.6763   -0.4518 C   0  0  0  0  0  0  0  0  0  0  0  0
   -4.2161    5.9409   -2.8880 H   0  0  0  0  0  0  0  0  0  0  0  0
   -1.9742    5.7745   -1.8839 H   0  0  0  0  0  0  0  0  0  0  0  0
   -2.9734    1.8761   -0.3264 H   0  0  0  0  0  0  0  0  0  0  0  0
   -5.8317    4.0920   -2.6672 H   0  0  0  0  0  0  0  0  0  0  0  0
   -4.9953    0.8100   -0.9622 H   0  0  0  0  0  0  0  0  0  0  0  0
   -5.9028    1.4561   -2.3302 H   0  0  0  0  0  0  0  0  0  0  0  0
   -7.4352    2.4178   -0.9081 H   0  0  0  0  0  0  0  0  0  0  0  0
   -8.6135    1.7161    1.3347 H   0  0  0  0  0  0  0  0  0  0  0  0
   -7.9940    3.3956    1.3929 H   0  0  0  0  0  0  0  0  0  0  0  0
   -6.8328    2.8962    3.4226 H   0  0  0  0  0  0  0  0  0  0  0  0
   -7.4216    0.0408    5.5471 H   0  0  0  0  0  0  0  0  0  0  0  0
   -8.3252    2.4365    6.7585 H   0  0  0  0  0  0  0  0  0  0  0  0
   -9.7647   -0.1138    4.6376 H   0  0  0  0  0  0  0  0  0  0  0  0
  -11.2287   -0.1489    5.5391 H   0  0  0  0  0  0  0  0  0  0  0  0
  -10.3802    2.4828    7.7454 H   0  0  0  0  0  0  0  0  0  0  0  0
  -11.6136    1.4073    7.2077 H   0  0  0  0  0  0  0  0  0  0  0  0
   -5.9778    1.7322    6.6845 H   0  0  0  0  0  0  0  0  0  0  0  0
   -6.1523    2.8172    5.3297 H   0  0  0  0  0  0  0  0  0  0  0  0
   -5.2500    0.7725    3.8850 H   0  0  0  0  0  0  0  0  0  0  0  0
   -4.8052    0.0715    5.4281 H   0  0  0  0  0  0  0  0  0  0  0  0
   -3.3521    2.0257    5.9292 H   0  0  0  0  0  0  0  0  0  0  0  0
   -3.8828    2.8340    4.4574 H   0  0  0  0  0  0  0  0  0  0  0  0
   -2.9519    0.9677    3.0683 H   0  0  0  0  0  0  0  0  0  0  0  0
   -2.3991    0.1513    4.5391 H   0  0  0  0  0  0  0  0  0  0  0  0
   -1.2738    2.5196    3.2242 H   0  0  0  0  0  0  0  0  0  0  0  0
    1.4588    1.5339    3.9972 H   0  0  0  0  0  0  0  0  0  0  0  0
    1.9545    1.8187    6.3820 H   0  0  0  0  0  0  0  0  0  0  0  0
    1.3954    3.4740    6.3652 H   0  0  0  0  0  0  0  0  0  0  0  0
    3.2212    4.0615    4.7219 H   0  0  0  0  0  0  0  0  0  0  0  0
    3.7504    2.3783    4.7324 H   0  0  0  0  0  0  0  0  0  0  0  0
    4.2116    2.5449    7.1905 H   0  0  0  0  0  0  0  0  0  0  0  0
    3.6654    4.2236    7.1810 H   0  0  0  0  0  0  0  0  0  0  0  0
    6.1319    4.0981    7.0710 H   0  0  0  0  0  0  0  0  0  0  0  0
    5.4972    4.8126    5.5786 H   0  0  0  0  0  0  0  0  0  0  0  0
    6.0454    3.1241    5.5925 H   0  0  0  0  0  0  0  0  0  0  0  0
    0.9872    3.1572    2.5603 H   0  0  0  0  0  0  0  0  0  0  0  0
    1.4373    6.0775    2.4927 H   0  0  0  0  0  0  0  0  0  0  0  0
   -1.5976    6.3937    2.5809 H   0  0  0  0  0  0  0  0  0  0  0  0
   -0.4620    7.4367    1.7620 H   0  0  0  0  0  0  0  0  0  0  0  0
   -0.9388    7.1931    4.7669 H   0  0  0  0  0  0  0  0  0  0  0  0
   -1.3198    8.4899    3.6904 H   0  0  0  0  0  0  0  0  0  0  0  0
    0.4647    9.3702    4.7594 H   0  0  0  0  0  0  0  0  0  0  0  0
    1.1892    8.8285    3.2607 H   0  0  0  0  0  0  0  0  0  0  0  0
    2.5757    8.4659    5.3490 H   0  0  0  0  0  0  0  0  0  0  0  0
    2.3152    6.9619    4.4487 H   0  0  0  0  0  0  0  0  0  0  0  0
    1.9913    6.7887    6.8616 H   0  0  0  0  0  0  0  0  0  0  0  0
    0.7037    6.2830    5.9697 H   0  0  0  0  0  0  0  0  0  0  0  0
    0.6385    7.7508    6.7641 H   0  0  0  0  0  0  0  0  0  0  0  0
    0.8960    5.1897    0.5053 H   0  0  0  0  0  0  0  0  0  0  0  0
   -0.2095    4.2182   -1.0831 H   0  0  0  0  0  0  0  0  0  0  0  0
   -0.6011    2.6280   -0.4691 H   0  0  0  0  0  0  0  0  0  0  0  0
 45  1  1  0
  1  2  2  0
  2 46  1  0
  2  3  1  0
  3  4  2  0
  4 47  1  0
  4  5  1  0
  1  6  1  0
  5  6  2  0
  6 48  1  0
  5  7  1  0
  7 49  1  0
  7 50  1  0
  7  8  1  0
  8 51  1  0
  8  9  1  0
  9 10  2  0
  9 11  1  0
 11 52  1  0
 11 53  1  0
 11 12  1  0
 12 54  1  0
 12 13  1  0
 13 14  2  0
 13 15  1  0
 15 55  1  1
 15 16  1  0
 16 56  1  0
 16 17  1  0
 17 18  1  0
 18 57  1  0
 18 58  1  0
 17 19  2  0
 19 59  1  0
 19 60  1  0
 15 20  1  0
 20 61  1  0
 20 62  1  0
 20 21  1  0
 21 63  1  0
 21 64  1  0
 21 22  1  0
 22 65  1  0
 22 66  1  0
 22 23  1  0
 23 67  1  0
 23 68  1  0
 23 24  1  0
 24 69  1  0
 24 25  1  0
 25 26  2  0
 25 27  1  0
 27 70  1  6
 27 28  1  0
 28 71  1  0
 28 72  1  0
 28 29  1  0
 29 73  1  0
 29 74  1  0
 29 30  1  0
 30 75  1  0
 30 76  1  0
 30 31  1  0
 31 77  1  0
 31 78  1  0
 31 79  1  0
 27 32  1  0
 32 80  1  0
 32 33  1  0
 33 34  2  0
 33 35  1  0
 35 81  1  6
 35 36  1  0
 36 82  1  0
 36 83  1  0
 36 37  1  0
 37 84  1  0
 37 85  1  0
 37 38  1  0
 38 86  1  0
 38 87  1  0
 38 39  1  0
 39 88  1  0
 39 89  1  0
 39 40  1  0
 40 90  1  0
 40 91  1  0
 40 92  1  0
 35 41  1  0
 41 93  1  0
 41 42  1  0
 42 43  2  0
  3 44  1  0
 42 44  1  0
 44 94  1  0
 44 95  1  0
M  CHG  2  19   1  40   1
M  END
>  <conformer_energy>  (1) 
-124.45

>  <ligand_smiles>  (1) 
CCCC[C@@H]1NC(=O)[C@H](CCCC[NH3+])NC(=O)Cc2cccc(c2)CNC(=O)CNC(=O)[C@H](NC(N)=[NH2+])CCCCNC1=O

>  <ligand_conf_name>  (1) 
MOL_0_isomer_0_conf_0

>  <ligand_molecule_name>  (1) 
MOL_0_isomer_0

$$$$
