1J3J - prepared_ligand3_conf_0
     RDKit          3D

 31 32  0  0  0  0  0  0  0  0999 V2000
    1.1087    4.6321    0.8661 C   0  0  0  0  0  0  0  0  0  0  0  0
    1.6496    3.4462    0.3609 C   0  0  0  0  0  0  0  0  0  0  0  0
    1.7457    2.3005    1.1686 C   0  0  0  0  0  0  0  0  0  0  0  0
    2.3101    1.0531    0.6347 C   0  0  0  0  0  0  0  0  0  0  0  0
    3.6898    0.8061    0.6478 C   0  0  0  0  0  0  0  0  0  0  0  0
    4.5960    1.7376    1.0980 N   0  0  0  0  0  0  0  0  0  0  0  0
    4.2324   -0.3192    0.1534 N   0  0  0  0  0  0  0  0  0  0  0  0
    3.3973   -1.2327   -0.3514 C   0  0  0  0  0  0  0  0  0  0  0  0
    3.9365   -2.3838   -0.8473 N   0  0  0  0  0  0  0  0  0  0  0  0
    2.0786   -1.0688   -0.3916 N   0  0  0  0  0  0  0  0  0  0  0  0
    1.4971    0.0483    0.0786 C   0  0  0  0  0  0  0  0  0  0  0  0
   -0.0017    0.1202   -0.0185 C   0  0  0  0  0  0  0  0  0  0  0  0
   -0.6743   -0.6129    1.1317 C   0  0  0  0  0  0  0  0  0  0  0  0
    1.2998    2.3761    2.4988 C   0  0  0  0  0  0  0  0  0  0  0  0
    0.7583    3.5624    3.0028 C   0  0  0  0  0  0  0  0  0  0  0  0
    0.6628    4.6847    2.1840 C   0  0  0  0  0  0  0  0  0  0  0  0
   -0.0042    6.1415    2.8044 Cl  0  0  0  0  0  0  0  0  0  0  0  0
    1.0428    5.5122    0.2299 H   0  0  0  0  0  0  0  0  0  0  0  0
    2.0046    3.4337   -0.6688 H   0  0  0  0  0  0  0  0  0  0  0  0
    5.5739    1.4774    1.0441 H   0  0  0  0  0  0  0  0  0  0  0  0
    4.3402    2.4208    1.7993 H   0  0  0  0  0  0  0  0  0  0  0  0
    3.4502   -3.1593   -1.2633 H   0  0  0  0  0  0  0  0  0  0  0  0
    4.9497   -2.4361   -0.7872 H   0  0  0  0  0  0  0  0  0  0  0  0
    1.5281   -1.8171   -0.7943 H   0  0  0  0  0  0  0  0  0  0  0  0
   -0.3502    1.1571   -0.0595 H   0  0  0  0  0  0  0  0  0  0  0  0
   -0.3135   -0.3366   -0.9659 H   0  0  0  0  0  0  0  0  0  0  0  0
   -1.7627   -0.5598    1.0289 H   0  0  0  0  0  0  0  0  0  0  0  0
   -0.4036   -0.1767    2.0984 H   0  0  0  0  0  0  0  0  0  0  0  0
   -0.3873   -1.6699    1.1500 H   0  0  0  0  0  0  0  0  0  0  0  0
    1.3738    1.5167    3.1634 H   0  0  0  0  0  0  0  0  0  0  0  0
    0.4170    3.6078    4.0349 H   0  0  0  0  0  0  0  0  0  0  0  0
 18  1  1  0
  1  2  2  0
  2 19  1  0
  2  3  1  0
  3  4  1  0
  4  5  2  0
  5  6  1  0
  6 20  1  0
  6 21  1  0
  5  7  1  0
  7  8  2  0
  8  9  1  0
  9 22  1  0
  9 23  1  0
  8 10  1  0
 10 24  1  0
  4 11  1  0
 10 11  2  0
 11 12  1  0
 12 25  1  0
 12 26  1  0
 12 13  1  0
 13 27  1  0
 13 28  1  0
 13 29  1  0
  3 14  2  0
 14 30  1  0
 14 15  1  0
 15 31  1  0
  1 16  1  0
 15 16  2  0
 16 17  1  0
M  CHG  1  10   1
M  END
>  <conformer_energy>  (1) 
-51.19

>  <ligand_smiles>  (1) 
CCc1[nH+]c(N)nc(N)c1-c1ccc(Cl)cc1

>  <ligand_conf_name>  (1) 
1J3J - prepared_ligand3_conf_0

>  <ligand_molecule_name>  (1) 
1J3J - prepared_ligand3

$$$$
