MOL_0_isomer_0_conf_0
     RDKit          3D

 35 36  0  0  0  0  0  0  0  0999 V2000
    0.4761    1.6510   -2.2286 O   0  0  0  0  0  0  0  0  0  0  0  0
    1.8588    1.4266   -1.8834 C   0  0  1  0  0  0  0  0  0  0  0  0
    1.9396    1.2275   -0.3581 C   0  0  2  0  0  0  0  0  0  0  0  0
    3.2613    1.3745    0.1507 O   0  0  0  0  0  0  0  0  0  0  0  0
    1.3331   -0.1191    0.0852 C   0  0  1  0  0  0  0  0  0  0  0  0
   -0.1103   -0.1683   -0.1780 N   0  0  0  0  0  0  0  0  0  0  0  0
   -1.0716   -0.8880    0.4676 C   0  0  0  0  0  0  0  0  0  0  0  0
   -2.2048   -0.9098   -0.0019 O   0  0  0  0  0  0  0  0  0  0  0  0
   -0.6940   -1.6408    1.7120 C   0  0  0  0  0  0  0  0  0  0  0  0
    2.0466   -1.2624   -0.6464 C   0  0  0  0  0  0  0  0  0  0  0  0
    1.8770   -1.1150   -2.1492 N   0  0  2  0  0  4  0  0  0  0  0  0
    2.6841   -2.1447   -2.9086 C   0  0  0  0  0  0  0  0  0  0  0  0
    3.8789   -1.3964   -3.5066 C   0  0  0  0  0  0  0  0  0  0  0  0
    3.8156    0.0277   -2.9668 C   0  0  2  0  0  0  0  0  0  0  0  0
    4.5643    0.1256   -1.7586 O   0  0  0  0  0  0  0  0  0  0  0  0
    2.3164    0.2270   -2.7317 C   0  0  2  0  0  0  0  0  0  0  0  0
    0.2476    2.5672   -1.9659 H   0  0  0  0  0  0  0  0  0  0  0  0
    2.4230    2.3154   -2.1883 H   0  0  0  0  0  0  0  0  0  0  0  0
    1.3514    2.0223    0.1185 H   0  0  0  0  0  0  0  0  0  0  0  0
    3.9186    0.9732   -0.4561 H   0  0  0  0  0  0  0  0  0  0  0  0
    1.4968   -0.2508    1.1603 H   0  0  0  0  0  0  0  0  0  0  0  0
   -0.4834    0.3687   -0.9626 H   0  0  0  0  0  0  0  0  0  0  0  0
   -0.3285   -0.9452    2.4719 H   0  0  0  0  0  0  0  0  0  0  0  0
    0.0743   -2.3841    1.4876 H   0  0  0  0  0  0  0  0  0  0  0  0
   -1.5742   -2.1562    2.1070 H   0  0  0  0  0  0  0  0  0  0  0  0
    1.6038   -2.2307   -0.3885 H   0  0  0  0  0  0  0  0  0  0  0  0
    3.1142   -1.2995   -0.4128 H   0  0  0  0  0  0  0  0  0  0  0  0
    0.8682   -1.2274   -2.3439 H   0  0  0  0  0  0  0  0  0  0  0  0
    2.0328   -2.5506   -3.6894 H   0  0  0  0  0  0  0  0  0  0  0  0
    2.9821   -2.9482   -2.2279 H   0  0  0  0  0  0  0  0  0  0  0  0
    3.7803   -1.3907   -4.5986 H   0  0  0  0  0  0  0  0  0  0  0  0
    4.8187   -1.8998   -3.2576 H   0  0  0  0  0  0  0  0  0  0  0  0
    4.2149    0.7595   -3.6759 H   0  0  0  0  0  0  0  0  0  0  0  0
    5.5153    0.0716   -1.9957 H   0  0  0  0  0  0  0  0  0  0  0  0
    1.8160    0.2734   -3.7099 H   0  0  0  0  0  0  0  0  0  0  0  0
 17  1  1  0
  1  2  1  0
  2 18  1  6
  2  3  1  0
  3 19  1  1
  3  4  1  0
  4 20  1  0
  3  5  1  0
  5 21  1  1
  5  6  1  0
  6 22  1  0
  6  7  1  0
  7  8  2  0
  7  9  1  0
  9 23  1  0
  9 24  1  0
  9 25  1  0
  5 10  1  0
 10 26  1  0
 10 27  1  0
 10 11  1  0
 11 28  1  1
 11 12  1  0
 12 29  1  0
 12 30  1  0
 12 13  1  0
 13 31  1  0
 13 32  1  0
 13 14  1  0
 14 33  1  6
 14 15  1  0
 15 34  1  0
  2 16  1  0
 11 16  1  0
 14 16  1  0
 16 35  1  6
M  CHG  1  11   1
M  END
>  <conformer_energy>  (1) 
96.45

>  <ligand_smiles>  (1) 
CC(=O)N[C@H]1C[N@@H+]2CC[C@H](O)[C@@H]2[C@@H](O)[C@@H]1O

>  <ligand_conf_name>  (1) 
MOL_0_isomer_0_conf_0

>  <ligand_molecule_name>  (1) 
MOL_0_isomer_0

$$$$
