1XM6 - prepared_ligand3_conf_0
     RDKit          3D

 38 39  0  0  0  0  0  0  0  0999 V2000
    3.6467    2.3961   -0.6380 C   0  0  0  0  0  0  0  0  0  0  0  0
    3.1921    3.6998   -0.3953 C   0  0  0  0  0  0  0  0  0  0  0  0
    2.2081    3.9609    0.5736 C   0  0  0  0  0  0  0  0  0  0  0  0
    1.7320    5.3845    0.8336 C   0  0  1  0  0  0  0  0  0  0  0  0
    1.0202    5.9560   -0.4030 C   0  0  0  0  0  0  0  0  0  0  0  0
    0.7816    5.4411    1.9240 O   0  0  0  0  0  0  0  0  0  0  0  0
    1.0526    6.5344    2.6922 C   0  0  0  0  0  0  0  0  0  0  0  0
    0.3461    6.9447    3.5958 O   0  0  0  0  0  0  0  0  0  0  0  0
    2.2370    7.0898    2.3079 N   0  0  0  0  0  0  0  0  0  0  0  0
    2.8676    6.2940    1.3119 C   0  0  0  0  0  0  0  0  0  0  0  0
    1.6873    2.8717    1.2858 C   0  0  0  0  0  0  0  0  0  0  0  0
    2.1246    1.5676    1.0261 C   0  0  0  0  0  0  0  0  0  0  0  0
    1.5613    0.5824    1.7998 O   0  0  0  0  0  0  0  0  0  0  0  0
    0.7695   -0.3182    1.0174 C   0  0  0  0  0  0  0  0  0  0  0  0
   -0.3184   -0.9173    1.9079 C   0  0  0  0  0  0  0  0  0  0  0  0
   -1.2893    0.1361    2.4249 C   0  0  0  0  0  0  0  0  0  0  0  0
    3.1242    1.3158    0.0760 C   0  0  0  0  0  0  0  0  0  0  0  0
    3.5261    0.0155   -0.0703 O   0  0  0  0  0  0  0  0  0  0  0  0
    4.5586   -0.2535   -1.0080 C   0  0  0  0  0  0  0  0  0  0  0  0
    4.4176    2.2622   -1.3908 H   0  0  0  0  0  0  0  0  0  0  0  0
    3.6244    4.5111   -0.9779 H   0  0  0  0  0  0  0  0  0  0  0  0
    0.6249    6.9588   -0.2052 H   0  0  0  0  0  0  0  0  0  0  0  0
    0.1596    5.3334   -0.6756 H   0  0  0  0  0  0  0  0  0  0  0  0
    1.6841    6.0193   -1.2719 H   0  0  0  0  0  0  0  0  0  0  0  0
    2.6268    7.8786    2.8061 H   0  0  0  0  0  0  0  0  0  0  0  0
    3.2919    6.9285    0.5276 H   0  0  0  0  0  0  0  0  0  0  0  0
    3.6793    5.7459    1.8045 H   0  0  0  0  0  0  0  0  0  0  0  0
    0.9245    3.0176    2.0492 H   0  0  0  0  0  0  0  0  0  0  0  0
    0.3046    0.1876    0.1602 H   0  0  0  0  0  0  0  0  0  0  0  0
    1.4053   -1.1308    0.6483 H   0  0  0  0  0  0  0  0  0  0  0  0
   -0.8729   -1.6748    1.3422 H   0  0  0  0  0  0  0  0  0  0  0  0
    0.1444   -1.4155    2.7689 H   0  0  0  0  0  0  0  0  0  0  0  0
   -2.0715   -0.3350    3.0286 H   0  0  0  0  0  0  0  0  0  0  0  0
   -1.7718    0.6640    1.5954 H   0  0  0  0  0  0  0  0  0  0  0  0
   -0.7801    0.8737    3.0535 H   0  0  0  0  0  0  0  0  0  0  0  0
    4.7573   -1.3297   -0.9871 H   0  0  0  0  0  0  0  0  0  0  0  0
    5.4851    0.2612   -0.7333 H   0  0  0  0  0  0  0  0  0  0  0  0
    4.2454    0.0070   -2.0240 H   0  0  0  0  0  0  0  0  0  0  0  0
 20  1  1  0
  1  2  2  0
  2 21  1  0
  2  3  1  0
  3  4  1  0
  4  5  1  6
  5 22  1  0
  5 23  1  0
  5 24  1  0
  4  6  1  0
  6  7  1  0
  7  8  2  0
  7  9  1  0
  9 25  1  0
  4 10  1  0
  9 10  1  0
 10 26  1  0
 10 27  1  0
  3 11  2  0
 11 28  1  0
 11 12  1  0
 12 13  1  0
 13 14  1  0
 14 29  1  0
 14 30  1  0
 14 15  1  0
 15 31  1  0
 15 32  1  0
 15 16  1  0
 16 33  1  0
 16 34  1  0
 16 35  1  0
  1 17  1  0
 12 17  2  0
 17 18  1  0
 18 19  1  0
 19 36  1  0
 19 37  1  0
 19 38  1  0
M  END
>  <conformer_energy>  (1) 
17.73

>  <ligand_smiles>  (1) 
CCCOc1cc([C@]2(C)CNC(=O)O2)ccc1OC

>  <ligand_conf_name>  (1) 
1XM6 - prepared_ligand3_conf_0

>  <ligand_molecule_name>  (1) 
1XM6 - prepared_ligand3

$$$$
