MOL_0_isomer_0_chiral_N_isomer_0_conf_0
     RDKit          3D

 42 43  0  0  0  0  0  0  0  0999 V2000
   12.0384    0.5492   -0.8830 O   0  0  0  0  0  0  0  0  0  0  0  0
   10.7278    0.1943   -1.0734 C   0  0  0  0  0  0  0  0  0  0  0  0
   10.1644    0.5120   -2.3092 C   0  0  0  0  0  0  0  0  0  0  0  0
    8.8310    0.1967   -2.5654 C   0  0  0  0  0  0  0  0  0  0  0  0
    8.0803   -0.4550   -1.5830 C   0  0  0  0  0  0  0  0  0  0  0  0
    6.3583   -0.7830   -1.8647 S   0  0  0  0  0  6  0  0  0  0  0  0
    5.9245    0.0785   -2.9481 O   0  0  0  0  0  0  0  0  0  0  0  0
    6.1839   -2.2175   -1.9366 O   0  0  0  0  0  0  0  0  0  0  0  0
    5.6522   -0.2031   -0.4454 N   0  0  0  0  0  0  0  0  0  0  0  0
    4.2423   -0.0013   -0.3722 C   0  0  0  0  0  0  0  0  0  0  0  0
    3.7721    0.9984    0.4829 C   0  0  0  0  0  0  0  0  0  0  0  0
    2.3993    1.2045    0.6487 C   0  0  0  0  0  0  0  0  0  0  0  0
    1.4752    0.3963   -0.0234 C   0  0  0  0  0  0  0  0  0  0  0  0
   -0.0060    0.6037    0.1666 C   0  0  0  0  0  0  0  0  0  0  0  0
   -0.5295   -0.1395    1.3977 C   0  0  0  0  0  0  0  0  0  0  0  0
   -2.0336    0.0696    1.5724 C   0  0  0  0  0  0  0  0  0  0  0  0
   -2.5594   -0.6620    2.7969 C   0  0  0  0  0  0  0  0  0  0  0  0
    1.9498   -0.6332   -0.8442 C   0  0  0  0  0  0  0  0  0  0  0  0
    3.3240   -0.8369   -1.0082 C   0  0  0  0  0  0  0  0  0  0  0  0
    8.6507   -0.7900   -0.3499 C   0  0  0  0  0  0  0  0  0  0  0  0
    9.9853   -0.4498   -0.0705 C   0  0  0  0  0  0  0  0  0  0  0  0
   10.5837   -0.7515    1.2806 C   0  0  0  0  0  0  0  0  0  0  0  0
   11.8204   -0.4716    1.4117 O   0  0  0  0  0  0  0  0  0  0  0  0
    9.8163   -1.2289    2.1696 O   0  0  0  0  0  1  0  0  0  0  0  0
   12.2665    0.2300    0.0347 H   0  0  0  0  0  0  0  0  0  0  0  0
   10.7676    1.0141   -3.0596 H   0  0  0  0  0  0  0  0  0  0  0  0
    8.3899    0.4626   -3.5221 H   0  0  0  0  0  0  0  0  0  0  0  0
    6.2444    0.4395    0.0793 H   0  0  0  0  0  0  0  0  0  0  0  0
    4.4676    1.6304    1.0280 H   0  0  0  0  0  0  0  0  0  0  0  0
    2.0586    1.9943    1.3136 H   0  0  0  0  0  0  0  0  0  0  0  0
   -0.5401    0.2682   -0.7316 H   0  0  0  0  0  0  0  0  0  0  0  0
   -0.2119    1.6782    0.2557 H   0  0  0  0  0  0  0  0  0  0  0  0
   -0.0043    0.2095    2.2959 H   0  0  0  0  0  0  0  0  0  0  0  0
   -0.3162   -1.2121    1.3042 H   0  0  0  0  0  0  0  0  0  0  0  0
   -2.5650   -0.2895    0.6834 H   0  0  0  0  0  0  0  0  0  0  0  0
   -2.2521    1.1393    1.6715 H   0  0  0  0  0  0  0  0  0  0  0  0
   -3.6369   -0.5003    2.9011 H   0  0  0  0  0  0  0  0  0  0  0  0
   -2.0720   -0.3015    3.7085 H   0  0  0  0  0  0  0  0  0  0  0  0
   -2.3836   -1.7395    2.7160 H   0  0  0  0  0  0  0  0  0  0  0  0
    1.2554   -1.2951   -1.3567 H   0  0  0  0  0  0  0  0  0  0  0  0
    3.6537   -1.6638   -1.6312 H   0  0  0  0  0  0  0  0  0  0  0  0
    8.0692   -1.3084    0.4127 H   0  0  0  0  0  0  0  0  0  0  0  0
 25  1  1  0
  1  2  1  0
  2  3  2  0
  3 26  1  0
  3  4  1  0
  4 27  1  0
  4  5  2  0
  5  6  1  0
  6  7  2  0
  6  8  2  0
  6  9  1  0
  9 28  1  0
  9 10  1  0
 10 11  2  0
 11 29  1  0
 11 12  1  0
 12 30  1  0
 12 13  2  0
 13 14  1  0
 14 31  1  0
 14 32  1  0
 14 15  1  0
 15 33  1  0
 15 34  1  0
 15 16  1  0
 16 35  1  0
 16 36  1  0
 16 17  1  0
 17 37  1  0
 17 38  1  0
 17 39  1  0
 13 18  1  0
 18 40  1  0
 10 19  1  0
 18 19  2  0
 19 41  1  0
  5 20  1  0
 20 42  1  0
  2 21  1  0
 20 21  2  0
 21 22  1  0
 22 23  2  0
 22 24  1  0
M  CHG  1  24  -1
M  END
>  <conformer_energy>  (1) 
-10.00

>  <ligand_smiles>  (1) 
CCCCc1ccc(NS(=O)(=O)c2ccc(O)c(C(=O)[O-])c2)cc1

>  <ligand_conf_name>  (1) 
MOL_0_isomer_0_chiral_N_isomer_0_conf_0

>  <ligand_molecule_name>  (1) 
MOL_0_isomer_0_chiral_N_isomer_0

$$$$
MOL_0_isomer_0_chiral_N_isomer_1_conf_0
     RDKit          3D

 42 43  0  0  0  0  0  0  0  0999 V2000
   12.0563   -0.2384   -0.9084 O   0  0  0  0  0  0  0  0  0  0  0  0
   10.7328    0.0622   -1.1038 C   0  0  0  0  0  0  0  0  0  0  0  0
   10.1742   -0.3234   -2.3223 C   0  0  0  0  0  0  0  0  0  0  0  0
    8.8296   -0.0638   -2.5826 C   0  0  0  0  0  0  0  0  0  0  0  0
    8.0622    0.6013   -1.6226 C   0  0  0  0  0  0  0  0  0  0  0  0
    6.3299    0.8633   -1.9095 S   0  0  0  0  0  6  0  0  0  0  0  0
    6.1137    2.2866   -2.0576 O   0  0  0  0  0  0  0  0  0  0  0  0
    5.9168   -0.0673   -2.9428 O   0  0  0  0  0  0  0  0  0  0  0  0
    5.6461    0.3394   -0.4571 N   0  0  0  0  0  0  0  0  0  0  0  0
    4.2416    0.1071   -0.3683 C   0  0  0  0  0  0  0  0  0  0  0  0
    3.3013    0.8982   -1.0284 C   0  0  0  0  0  0  0  0  0  0  0  0
    1.9331    0.6678   -0.8506 C   0  0  0  0  0  0  0  0  0  0  0  0
    1.4863   -0.3438    0.0074 C   0  0  0  0  0  0  0  0  0  0  0  0
    0.0112   -0.5806    0.2099 C   0  0  0  0  0  0  0  0  0  0  0  0
   -0.5284    0.1944    1.4142 C   0  0  0  0  0  0  0  0  0  0  0  0
   -2.0274   -0.0429    1.5978 C   0  0  0  0  0  0  0  0  0  0  0  0
   -2.5704    0.7218    2.7943 C   0  0  0  0  0  0  0  0  0  0  0  0
    2.4320   -1.1058    0.7025 C   0  0  0  0  0  0  0  0  0  0  0  0
    3.7990   -0.8736    0.5228 C   0  0  0  0  0  0  0  0  0  0  0  0
    8.6269    1.0035   -0.4071 C   0  0  0  0  0  0  0  0  0  0  0  0
    9.9736    0.7192   -0.1224 C   0  0  0  0  0  0  0  0  0  0  0  0
   10.5674    1.0924    1.2127 C   0  0  0  0  0  0  0  0  0  0  0  0
   11.8141    0.8620    1.3468 O   0  0  0  0  0  0  0  0  0  0  0  0
    9.7876    1.5744    2.0881 O   0  0  0  0  0  1  0  0  0  0  0  0
   12.2776    0.1233   -0.0050 H   0  0  0  0  0  0  0  0  0  0  0  0
   10.7905   -0.8340   -3.0560 H   0  0  0  0  0  0  0  0  0  0  0  0
    8.3928   -0.3825   -3.5252 H   0  0  0  0  0  0  0  0  0  0  0  0
    6.2552   -0.2668    0.0910 H   0  0  0  0  0  0  0  0  0  0  0  0
    3.6088    1.7099   -1.6816 H   0  0  0  0  0  0  0  0  0  0  0  0
    1.2211    1.2942   -1.3831 H   0  0  0  0  0  0  0  0  0  0  0  0
   -0.1681   -1.6557    0.3393 H   0  0  0  0  0  0  0  0  0  0  0  0
   -0.5330   -0.2918   -0.6986 H   0  0  0  0  0  0  0  0  0  0  0  0
   -0.3396    1.2677    1.2821 H   0  0  0  0  0  0  0  0  0  0  0  0
    0.0052   -0.1102    2.3237 H   0  0  0  0  0  0  0  0  0  0  0  0
   -2.2212   -1.1128    1.7368 H   0  0  0  0  0  0  0  0  0  0  0  0
   -2.5671    0.2696    0.6961 H   0  0  0  0  0  0  0  0  0  0  0  0
   -3.6440    0.5391    2.9051 H   0  0  0  0  0  0  0  0  0  0  0  0
   -2.4196    1.7993    2.6728 H   0  0  0  0  0  0  0  0  0  0  0  0
   -2.0751    0.4073    3.7186 H   0  0  0  0  0  0  0  0  0  0  0  0
    2.1126   -1.8812    1.3948 H   0  0  0  0  0  0  0  0  0  0  0  0
    4.5117   -1.4716    1.0844 H   0  0  0  0  0  0  0  0  0  0  0  0
    8.0324    1.5326    0.3377 H   0  0  0  0  0  0  0  0  0  0  0  0
 25  1  1  0
  1  2  1  0
  2  3  2  0
  3 26  1  0
  3  4  1  0
  4 27  1  0
  4  5  2  0
  5  6  1  0
  6  7  2  0
  6  8  2  0
  6  9  1  0
  9 28  1  0
  9 10  1  0
 10 11  2  0
 11 29  1  0
 11 12  1  0
 12 30  1  0
 12 13  2  0
 13 14  1  0
 14 31  1  0
 14 32  1  0
 14 15  1  0
 15 33  1  0
 15 34  1  0
 15 16  1  0
 16 35  1  0
 16 36  1  0
 16 17  1  0
 17 37  1  0
 17 38  1  0
 17 39  1  0
 13 18  1  0
 18 40  1  0
 10 19  1  0
 18 19  2  0
 19 41  1  0
  5 20  1  0
 20 42  1  0
  2 21  1  0
 20 21  2  0
 21 22  1  0
 22 23  2  0
 22 24  1  0
M  CHG  1  24  -1
M  END
>  <conformer_energy>  (2) 
-10.00

>  <ligand_smiles>  (2) 
CCCCc1ccc(NS(=O)(=O)c2ccc(O)c(C(=O)[O-])c2)cc1

>  <ligand_conf_name>  (2) 
MOL_0_isomer_0_chiral_N_isomer_1_conf_0

>  <ligand_molecule_name>  (2) 
MOL_0_isomer_0_chiral_N_isomer_1

$$$$
