MOL_0_isomer_0_conf_0
     RDKit          3D

 29 28  0  0  0  0  0  0  0  0999 V2000
    3.8763    1.0581    0.1977 C   0  0  0  0  0  0  0  0  0  0  0  0
    4.7901    2.2268    0.5994 C   0  0  0  0  0  0  0  0  0  0  0  0
    6.0149    2.2467   -0.2438 N   0  0  0  0  0  4  0  0  0  0  0  0
    2.6272    0.9595    1.0863 C   0  0  0  0  0  0  0  0  0  0  0  0
    1.6843   -0.0984    0.5440 N   0  0  0  0  0  4  0  0  0  0  0  0
    0.4679   -0.3556    1.4114 C   0  0  0  0  0  0  0  0  0  0  0  0
   -0.4974   -1.3163    0.6918 C   0  0  0  0  0  0  0  0  0  0  0  0
   -1.6570   -1.7565    1.5989 C   0  0  0  0  0  0  0  0  0  0  0  0
   -2.6142   -2.6133    0.8517 N   0  0  0  0  0  4  0  0  0  0  0  0
    4.4327    0.1203    0.2705 H   0  0  0  0  0  0  0  0  0  0  0  0
    3.5792    1.1736   -0.8523 H   0  0  0  0  0  0  0  0  0  0  0  0
    4.2975    3.1915    0.4540 H   0  0  0  0  0  0  0  0  0  0  0  0
    5.1349    2.1255    1.6318 H   0  0  0  0  0  0  0  0  0  0  0  0
    5.8595    2.1515   -1.2625 H   0  0  0  0  0  0  0  0  0  0  0  0
    6.6908    1.5135    0.0244 H   0  0  0  0  0  0  0  0  0  0  0  0
    6.5311    3.1373   -0.1189 H   0  0  0  0  0  0  0  0  0  0  0  0
    2.8899    0.6640    2.1059 H   0  0  0  0  0  0  0  0  0  0  0  0
    2.0675    1.9026    1.1069 H   0  0  0  0  0  0  0  0  0  0  0  0
    2.1972   -0.9851    0.4328 H   0  0  0  0  0  0  0  0  0  0  0  0
    1.3739    0.1784   -0.3976 H   0  0  0  0  0  0  0  0  0  0  0  0
    0.8392   -0.7783    2.3515 H   0  0  0  0  0  0  0  0  0  0  0  0
   -0.0097    0.6154    1.5920 H   0  0  0  0  0  0  0  0  0  0  0  0
    0.0477   -2.2046    0.3441 H   0  0  0  0  0  0  0  0  0  0  0  0
   -0.8976   -0.8197   -0.2018 H   0  0  0  0  0  0  0  0  0  0  0  0
   -2.2365   -0.9084    1.9822 H   0  0  0  0  0  0  0  0  0  0  0  0
   -1.2939   -2.3639    2.4353 H   0  0  0  0  0  0  0  0  0  0  0  0
   -3.2806   -3.0766    1.4981 H   0  0  0  0  0  0  0  0  0  0  0  0
   -3.2027   -2.0854    0.1874 H   0  0  0  0  0  0  0  0  0  0  0  0
   -2.1867   -3.3902    0.3254 H   0  0  0  0  0  0  0  0  0  0  0  0
 10  1  1  0
  1 11  1  0
  1  2  1  0
  2 12  1  0
  2 13  1  0
  2  3  1  0
  3 14  1  0
  3 15  1  0
  3 16  1  0
  1  4  1  0
  4 17  1  0
  4 18  1  0
  4  5  1  0
  5 19  1  0
  5 20  1  0
  5  6  1  0
  6 21  1  0
  6 22  1  0
  6  7  1  0
  7 23  1  0
  7 24  1  0
  7  8  1  0
  8 25  1  0
  8 26  1  0
  8  9  1  0
  9 27  1  0
  9 28  1  0
  9 29  1  0
M  CHG  3   3   1   5   1   9   1
M  END
>  <conformer_energy>  (1) 
158.58

>  <ligand_smiles>  (1) 
[NH3+]CCC[NH2+]CCC[NH3+]

>  <ligand_conf_name>  (1) 
MOL_0_isomer_0_conf_0

>  <ligand_molecule_name>  (1) 
MOL_0_isomer_0

$$$$
