MOL_0_isomer_0_conf_0
     RDKit          3D

 78 82  0  0  0  0  0  0  0  0999 V2000
    9.2442    7.8500   10.6862 C   0  0  0  0  0  0  0  0  0  0  0  0
   10.3633    7.0759   10.3852 C   0  0  0  0  0  0  0  0  0  0  0  0
   10.3837    6.2957    9.2276 C   0  0  0  0  0  0  0  0  0  0  0  0
    9.2850    6.2876    8.3566 C   0  0  0  0  0  0  0  0  0  0  0  0
    9.2959    5.4404    7.1095 C   0  0  0  0  0  0  0  0  0  0  0  0
    8.4147    4.3301    7.3138 O   0  0  0  0  0  0  0  0  0  0  0  0
    8.5362    3.4268    6.2938 C   0  0  0  0  0  0  0  0  0  0  0  0
    9.3596    2.3230    6.4712 C   0  0  0  0  0  0  0  0  0  0  0  0
    9.4702    1.3526    5.4718 C   0  0  0  0  0  0  0  0  0  0  0  0
    8.7105    1.5134    4.2977 C   0  0  0  0  0  0  0  0  0  0  0  0
    7.8546    2.6017    4.1296 C   0  0  0  0  0  0  0  0  0  0  0  0
    7.7660    3.5791    5.1402 C   0  0  0  0  0  0  0  0  0  0  0  0
    7.2040    2.4292    2.8836 C   0  0  0  0  0  0  0  0  0  0  0  0
    7.6313    1.2399    2.3070 C   0  0  0  0  0  0  0  0  0  0  0  0
    7.1564    0.6263    1.0786 C   0  0  0  0  0  0  0  0  0  0  0  0
    7.8446   -0.0659    0.3326 O   0  0  0  0  0  0  0  0  0  0  0  0
    5.8245    0.8625    0.8263 N   0  0  0  0  0  0  0  0  0  0  0  0
    5.1425    0.3219   -0.3224 C   0  0  0  0  0  0  0  0  0  0  0  0
    3.6507    0.2985   -0.0941 C   0  0  0  0  0  0  0  0  0  0  0  0
    3.0672   -0.7204    0.6658 C   0  0  0  0  0  0  0  0  0  0  0  0
    1.6866   -0.7335    0.9030 C   0  0  0  0  0  0  0  0  0  0  0  0
    0.8512    0.2738    0.3924 C   0  0  0  0  0  0  0  0  0  0  0  0
   -0.6414    0.2196    0.6713 N   0  0  0  0  0  4  0  0  0  0  0  0
   -0.8670    0.2851    2.1800 C   0  0  0  0  0  0  0  0  0  0  0  0
   -1.2064   -1.0758    0.0929 C   0  0  0  0  0  0  0  0  0  0  0  0
   -1.3995    1.3823    0.0351 C   0  0  0  0  0  0  0  0  0  0  0  0
    1.4437    1.2978   -0.3581 C   0  0  0  0  0  0  0  0  0  0  0  0
    2.8273    1.3116   -0.5951 C   0  0  0  0  0  0  0  0  0  0  0  0
    8.6191    0.7391    3.1476 N   0  0  0  0  0  0  0  0  0  0  0  0
    9.3804   -0.4930    2.9349 C   0  0  0  0  0  0  0  0  0  0  0  0
   10.6315   -0.2598    2.1169 C   0  0  0  0  0  0  0  0  0  0  0  0
   11.6952    0.5082    2.6072 C   0  0  0  0  0  0  0  0  0  0  0  0
   12.8333    0.7291    1.8311 C   0  0  0  0  0  0  0  0  0  0  0  0
   12.9228    0.1926    0.5475 C   0  0  0  0  0  0  0  0  0  0  0  0
   11.8772   -0.5839    0.0319 C   0  0  0  0  0  0  0  0  0  0  0  0
   11.9304   -1.1162   -1.3369 C   0  0  0  0  0  0  0  0  0  0  0  0
   13.0211   -1.7184   -1.7589 N   0  0  0  0  0  0  0  0  0  0  0  0
   10.8791   -0.9741   -2.1165 N   0  0  0  0  0  4  0  0  0  0  0  0
   10.7503   -0.8198    0.8365 C   0  0  0  0  0  0  0  0  0  0  0  0
    8.1615    7.0649    8.6742 C   0  0  0  0  0  0  0  0  0  0  0  0
    8.1431    7.8434    9.8323 C   0  0  0  0  0  0  0  0  0  0  0  0
    9.2281    8.4546   11.5896 H   0  0  0  0  0  0  0  0  0  0  0  0
   11.2190    7.0772   11.0560 H   0  0  0  0  0  0  0  0  0  0  0  0
   11.2631    5.6924    9.0146 H   0  0  0  0  0  0  0  0  0  0  0  0
   10.3172    5.0965    6.8986 H   0  0  0  0  0  0  0  0  0  0  0  0
    8.9564    6.0458    6.2591 H   0  0  0  0  0  0  0  0  0  0  0  0
    9.9188    2.2116    7.3979 H   0  0  0  0  0  0  0  0  0  0  0  0
   10.1227    0.4990    5.6259 H   0  0  0  0  0  0  0  0  0  0  0  0
    7.0949    4.4259    5.0402 H   0  0  0  0  0  0  0  0  0  0  0  0
    6.4718    3.1095    2.4674 H   0  0  0  0  0  0  0  0  0  0  0  0
    5.3028    1.4436    1.4694 H   0  0  0  0  0  0  0  0  0  0  0  0
    5.5099   -0.6891   -0.5345 H   0  0  0  0  0  0  0  0  0  0  0  0
    5.3966    0.9443   -1.1878 H   0  0  0  0  0  0  0  0  0  0  0  0
    3.6881   -1.5142    1.0818 H   0  0  0  0  0  0  0  0  0  0  0  0
    1.2935   -1.5536    1.4978 H   0  0  0  0  0  0  0  0  0  0  0  0
   -1.9462    0.3061    2.3635 H   0  0  0  0  0  0  0  0  0  0  0  0
   -0.4004    1.1976    2.5646 H   0  0  0  0  0  0  0  0  0  0  0  0
   -0.4384   -0.6021    2.6546 H   0  0  0  0  0  0  0  0  0  0  0  0
   -2.2920   -1.0703    0.2380 H   0  0  0  0  0  0  0  0  0  0  0  0
   -0.7783   -1.9320    0.6226 H   0  0  0  0  0  0  0  0  0  0  0  0
   -0.9666   -1.1159   -0.9748 H   0  0  0  0  0  0  0  0  0  0  0  0
   -2.4626    1.2699    0.2751 H   0  0  0  0  0  0  0  0  0  0  0  0
   -1.2691    1.3438   -1.0512 H   0  0  0  0  0  0  0  0  0  0  0  0
   -1.0331    2.3239    0.4571 H   0  0  0  0  0  0  0  0  0  0  0  0
    0.8751    2.1180   -0.7843 H   0  0  0  0  0  0  0  0  0  0  0  0
    3.2560    2.1271   -1.1786 H   0  0  0  0  0  0  0  0  0  0  0  0
    8.7113   -1.2202    2.4618 H   0  0  0  0  0  0  0  0  0  0  0  0
    9.6449   -0.9201    3.9079 H   0  0  0  0  0  0  0  0  0  0  0  0
   11.6495    0.9560    3.5986 H   0  0  0  0  0  0  0  0  0  0  0  0
   13.6433    1.3395    2.2280 H   0  0  0  0  0  0  0  0  0  0  0  0
   13.8061    0.4158   -0.0473 H   0  0  0  0  0  0  0  0  0  0  0  0
   13.8071   -1.8422   -1.1283 H   0  0  0  0  0  0  0  0  0  0  0  0
   13.1102   -2.0962   -2.6921 H   0  0  0  0  0  0  0  0  0  0  0  0
   10.0564   -0.4884   -1.7657 H   0  0  0  0  0  0  0  0  0  0  0  0
   10.8546   -1.3114   -3.0680 H   0  0  0  0  0  0  0  0  0  0  0  0
    9.9388   -1.4413    0.4584 H   0  0  0  0  0  0  0  0  0  0  0  0
    7.2909    7.0600    8.0225 H   0  0  0  0  0  0  0  0  0  0  0  0
    7.2678    8.4415   10.0718 H   0  0  0  0  0  0  0  0  0  0  0  0
 42  1  1  0
  1  2  2  0
  2 43  1  0
  2  3  1  0
  3 44  1  0
  3  4  2  0
  4  5  1  0
  5 45  1  0
  5 46  1  0
  5  6  1  0
  6  7  1  0
  7  8  2  0
  8 47  1  0
  8  9  1  0
  9 48  1  0
  9 10  2  0
 10 11  1  0
  7 12  1  0
 11 12  2  0
 12 49  1  0
 11 13  1  0
 13 50  1  0
 13 14  2  0
 14 15  1  0
 15 16  2  0
 15 17  1  0
 17 51  1  0
 17 18  1  0
 18 52  1  0
 18 53  1  0
 18 19  1  0
 19 20  2  0
 20 54  1  0
 20 21  1  0
 21 55  1  0
 21 22  2  0
 22 23  1  0
 23 24  1  0
 24 56  1  0
 24 57  1  0
 24 58  1  0
 23 25  1  0
 25 59  1  0
 25 60  1  0
 25 61  1  0
 23 26  1  0
 26 62  1  0
 26 63  1  0
 26 64  1  0
 22 27  1  0
 27 65  1  0
 19 28  1  0
 27 28  2  0
 28 66  1  0
 10 29  1  0
 14 29  1  0
 29 30  1  0
 30 67  1  0
 30 68  1  0
 30 31  1  0
 31 32  2  0
 32 69  1  0
 32 33  1  0
 33 70  1  0
 33 34  2  0
 34 71  1  0
 34 35  1  0
 35 36  1  0
 36 37  1  0
 37 72  1  0
 37 73  1  0
 36 38  2  0
 38 74  1  0
 38 75  1  0
 31 39  1  0
 35 39  2  0
 39 76  1  0
  4 40  1  0
 40 77  1  0
  1 41  1  0
 40 41  2  0
 41 78  1  0
M  CHG  2  23   1  38   1
M  END
>  <conformer_energy>  (1) 
65.78

>  <ligand_smiles>  (1) 
C[N+](C)(C)c1ccc(CNC(=O)c2cc3cc(OCc4ccccc4)ccc3n2Cc2cccc(C(N)=[NH2+])c2)cc1

>  <ligand_conf_name>  (1) 
MOL_0_isomer_0_conf_0

>  <ligand_molecule_name>  (1) 
MOL_0_isomer_0

$$$$
