1Q41 - prepared_ligand2_conf_0
     RDKit          3D

 32 35  0  0  0  0  0  0  0  0999 V2000
    3.4977   -0.8991   -3.1165 O   0  0  0  0  0  0  0  0  0  0  0  0
    2.3206   -0.6591   -2.4107 N   0  0  0  0  0  0  0  0  0  0  0  0
    2.5140   -0.2508   -1.1988 C   0  0  0  0  0  0  0  0  0  0  0  0
    1.4173    0.0937   -0.1826 C   0  0  0  0  0  0  0  0  0  0  0  0
    0.0818    0.0423   -0.3421 C   0  0  0  0  0  0  0  0  0  0  0  0
   -0.7744    0.4437    0.8438 C   0  0  0  0  0  0  0  0  0  0  0  0
   -0.4051    0.8143    1.9448 O   0  0  0  0  0  0  0  0  0  0  0  0
   -2.0809    0.3047    0.4248 N   0  0  0  0  0  0  0  0  0  0  0  0
   -2.1429   -0.1383   -0.8894 C   0  0  0  0  0  0  0  0  0  0  0  0
   -3.3061   -0.3756   -1.5994 C   0  0  0  0  0  0  0  0  0  0  0  0
   -3.1762   -0.8187   -2.9127 C   0  0  0  0  0  0  0  0  0  0  0  0
   -1.9038   -1.0092   -3.4711 C   0  0  0  0  0  0  0  0  0  0  0  0
   -0.7404   -0.7602   -2.7264 C   0  0  0  0  0  0  0  0  0  0  0  0
   -0.8561   -0.3197   -1.4208 C   0  0  0  0  0  0  0  0  0  0  0  0
    2.0808    0.4814    0.9706 N   0  0  0  0  0  0  0  0  0  0  0  0
    3.4515    0.4249    0.8101 C   0  0  0  0  0  0  0  0  0  0  0  0
    4.4214    0.7378    1.7433 C   0  0  0  0  0  0  0  0  0  0  0  0
    5.7629    0.6108    1.3736 C   0  0  0  0  0  0  0  0  0  0  0  0
    6.1116    0.1757    0.0851 C   0  0  0  0  0  0  0  0  0  0  0  0
    5.1239   -0.1391   -0.8537 C   0  0  0  0  0  0  0  0  0  0  0  0
    3.7974   -0.0091   -0.4752 C   0  0  0  0  0  0  0  0  0  0  0  0
    3.1666   -1.1915   -3.9855 H   0  0  0  0  0  0  0  0  0  0  0  0
   -2.8703    0.5063    1.0185 H   0  0  0  0  0  0  0  0  0  0  0  0
   -4.2844   -0.2251   -1.1579 H   0  0  0  0  0  0  0  0  0  0  0  0
   -4.0626   -1.0186   -3.5102 H   0  0  0  0  0  0  0  0  0  0  0  0
   -1.8151   -1.3559   -4.4989 H   0  0  0  0  0  0  0  0  0  0  0  0
    0.2160   -0.9222   -3.2019 H   0  0  0  0  0  0  0  0  0  0  0  0
    1.5756    0.7632    1.8037 H   0  0  0  0  0  0  0  0  0  0  0  0
    4.1522    1.0739    2.7388 H   0  0  0  0  0  0  0  0  0  0  0  0
    6.5450    0.8511    2.0904 H   0  0  0  0  0  0  0  0  0  0  0  0
    7.1610    0.0825   -0.1858 H   0  0  0  0  0  0  0  0  0  0  0  0
    5.4082   -0.4732   -1.8433 H   0  0  0  0  0  0  0  0  0  0  0  0
 22  1  1  0
  1  2  1  0
  2  3  2  0
  3  4  1  0
  4  5  2  0
  5  6  1  0
  6  7  2  0
  6  8  1  0
  8 23  1  0
  8  9  1  0
  9 10  1  0
 10 24  1  0
 10 11  2  0
 11 25  1  0
 11 12  1  0
 12 26  1  0
 12 13  2  0
 13 27  1  0
  9 14  2  0
  5 14  1  0
 13 14  1  0
  4 15  1  0
 15 28  1  0
 15 16  1  0
 16 17  2  0
 17 29  1  0
 17 18  1  0
 18 30  1  0
 18 19  2  0
 19 31  1  0
 19 20  1  0
 20 32  1  0
 16 21  1  0
  3 21  1  0
 20 21  2  0
M  END
>  <conformer_energy>  (1) 
95.63

>  <ligand_smiles>  (1) 
O=C1Nc2ccccc2/C1=C1/Nc2ccccc2/C1=N\O

>  <ligand_conf_name>  (1) 
1Q41 - prepared_ligand2_conf_0

>  <ligand_molecule_name>  (1) 
1Q41 - prepared_ligand2

>  <fragInfo>  (1) 
1 2 3 4 5 6 7 8 9 10 11 12 13 14 15 16 17 18 19 20 21 22 23 24 25 26 27 28 29 30 31 32


>  <torsionInfo>  (1) 


>  <atomInfo>  (1) 
1  -0.410295 OA
2  -0.086509 NA
3  0.135741  C 
4  0.082281  C 
5  0.074851  C 
6  0.258067  C 
7  -0.268814 OA
8  -0.321320 N 
9  0.049159  A 
10 -0.037880 A 
11 -0.060157 A 
12 -0.061494 A 
13 -0.052006 A 
14 0.012994  A 
15 -0.352410 N 
16 0.048207  A 
17 -0.037912 A 
18 -0.060156 A 
19 -0.061438 A 
20 -0.050509 A 
21 0.029229  A 
22 0.329588  HD
23 0.169822  HD
24 0.064493  H 
25 0.062346  H 
26 0.062293  H 
27 0.063007  H 
28 0.166628  HD
29 0.064492  H 
30 0.062346  H 
31 0.062294  H 
32 0.063063  H 


$$$$
