1N2J - prepared_ligand1_conf_0
     RDKit          3D

 21 20  0  0  0  0  0  0  0  0999 V2000
    0.5724   -0.3937    3.0933 O   0  0  0  0  0  0  0  0  0  0  0  0
    1.8253   -0.0118    2.5440 C   0  0  0  0  0  0  0  0  0  0  0  0
    2.1910   -0.7400    1.2253 C   0  0  0  0  0  0  0  0  0  0  0  0
    3.7210   -0.6026    1.0348 C   0  0  0  0  0  0  0  0  0  0  0  0
    1.8561   -2.2404    1.3226 C   0  0  0  0  0  0  0  0  0  0  0  0
    1.4822   -0.1040    0.0003 C   0  0  1  0  0  0  0  0  0  0  0  0
    1.9951   -0.6998   -1.2282 O   0  0  0  0  0  0  0  0  0  0  0  0
   -0.0819   -0.1522   -0.0594 C   0  0  0  0  0  0  0  0  0  0  0  0
   -0.6957    0.1988    0.9857 O   0  0  0  0  0  0  0  0  0  0  0  0
   -0.5292   -0.5334   -1.1849 O   0  0  0  0  0  0  0  0  0  0  0  0
   -0.1070   -0.1584    2.4044 H   0  0  0  0  0  0  0  0  0  0  0  0
    2.5698   -0.2372    3.3161 H   0  0  0  0  0  0  0  0  0  0  0  0
    1.8304    1.0761    2.4101 H   0  0  0  0  0  0  0  0  0  0  0  0
    4.2651   -1.0195    1.8903 H   0  0  0  0  0  0  0  0  0  0  0  0
    4.0115    0.4495    0.9363 H   0  0  0  0  0  0  0  0  0  0  0  0
    4.0716   -1.1335    0.1430 H   0  0  0  0  0  0  0  0  0  0  0  0
    2.1942   -2.7848    0.4339 H   0  0  0  0  0  0  0  0  0  0  0  0
    2.3457   -2.6943    2.1918 H   0  0  0  0  0  0  0  0  0  0  0  0
    0.7793   -2.4120    1.4228 H   0  0  0  0  0  0  0  0  0  0  0  0
    1.7478    0.9593   -0.0596 H   0  0  0  0  0  0  0  0  0  0  0  0
    1.1612   -0.8454   -1.7439 H   0  0  0  0  0  0  0  0  0  0  0  0
 11  1  1  0
  1  2  1  0
  2 12  1  0
  2 13  1  0
  2  3  1  0
  3  4  1  0
  4 14  1  0
  4 15  1  0
  4 16  1  0
  3  5  1  0
  5 17  1  0
  5 18  1  0
  5 19  1  0
  3  6  1  0
  6 20  1  6
  6  7  1  0
  7 21  1  0
  6  8  1  0
  8  9  2  0
  8 10  1  0
M  CHG  1  10  -1
M  END
>  <conformer_energy>  (1) 
55.43

>  <ligand_smiles>  (1) 
CC(C)(CO)[C@@H](O)C(=O)[O-]

>  <ligand_conf_name>  (1) 
1N2J - prepared_ligand1_conf_0

>  <ligand_molecule_name>  (1) 
1N2J - prepared_ligand1

>  <fragInfo>  (1) 
3 4 5 14 15 16 17 18 19
1 2 11 12 13
6 7 20 21
8 9 10


>  <torsionInfo>  (1) 
2 3 1 0
3 6 0 2
6 8 2 3


>  <atomInfo>  (1) 
1  -0.395704 OA
2  0.051021  C 
3  0.019174  C 
4  -0.054831 C 
5  -0.054831 C 
6  0.100571  C 
7  -0.386510 OA
8  0.070624  C 
9  -0.547296 OA
10 -0.547296 OA
11 0.210067  HD
12 0.057048  H 
13 0.057048  H 
14 0.023786  H 
15 0.023786  H 
16 0.023786  H 
17 0.023786  H 
18 0.023786  H 
19 0.023786  H 
20 0.067170  H 
21 0.211029  HD


$$$$
