MOL_0_isomer_0_conf_0
     RDKit          3D

 47 51  0  0  0  0  0  0  0  0999 V2000
    5.7497    6.4550   -5.9158 O   0  0  0  0  0  0  0  0  0  0  0  0
    5.3121    5.7020   -4.8674 C   0  0  0  0  0  0  0  0  0  0  0  0
    5.9389    5.8954   -3.6341 C   0  0  0  0  0  0  0  0  0  0  0  0
    5.5405    5.1562   -2.5165 C   0  0  0  0  0  0  0  0  0  0  0  0
    4.5129    4.2282   -2.6494 C   0  0  0  0  0  0  0  0  0  0  0  0
    3.8955    4.0500   -3.8968 C   0  0  0  0  0  0  0  0  0  0  0  0
    2.8306    3.1107   -4.0512 O   0  0  0  0  0  0  0  0  0  0  0  0
    2.3278    2.3231   -2.9863 C   0  0  0  0  0  0  0  0  0  0  0  0
    1.3513    1.5964   -3.1380 O   0  0  0  0  0  0  0  0  0  0  0  0
    3.0020    2.4655   -1.7124 C   0  0  0  0  0  0  0  0  0  0  0  0
    4.0050    3.3940   -1.5986 C   0  0  0  0  0  0  0  0  0  0  0  0
    4.4813    3.4763   -0.3430 O   0  0  0  0  0  0  0  0  0  0  0  0
    3.7797    2.5630    0.3846 C   0  0  0  0  0  0  0  0  0  0  0  0
    3.9549    2.3605    1.7512 C   0  0  0  0  0  0  0  0  0  0  0  0
    3.1485    1.3995    2.3542 C   0  0  0  0  0  0  0  0  0  0  0  0
    2.2478    0.6635    1.5883 C   0  0  0  0  0  0  0  0  0  0  0  0
    1.4419   -0.2649    2.2021 O   0  0  0  0  0  0  0  0  0  0  0  0
    2.0957    0.8344    0.1887 C   0  0  0  0  0  0  0  0  0  0  0  0
    1.1655   -0.1070   -0.5393 C   0  0  0  0  0  0  0  0  0  0  0  0
   -0.2867    0.0479   -0.1476 N   0  0  0  0  0  4  0  0  0  0  0  0
   -0.8822    1.3464   -0.6247 C   0  0  0  0  0  0  0  0  0  0  0  0
   -2.2893    1.4912   -0.0614 C   0  0  0  0  0  0  0  0  0  0  0  0
   -3.1677    0.3010   -0.4303 C   0  0  0  0  0  0  0  0  0  0  0  0
   -2.5148   -1.0135   -0.0180 C   0  0  0  0  0  0  0  0  0  0  0  0
   -1.1036   -1.1417   -0.5742 C   0  0  0  0  0  0  0  0  0  0  0  0
    2.8677    1.8644   -0.4187 C   0  0  0  0  0  0  0  0  0  0  0  0
    4.2829    4.7784   -5.0169 C   0  0  0  0  0  0  0  0  0  0  0  0
    5.2476    6.2257   -6.7154 H   0  0  0  0  0  0  0  0  0  0  0  0
    6.7417    6.6247   -3.5468 H   0  0  0  0  0  0  0  0  0  0  0  0
    6.0368    5.3121   -1.5620 H   0  0  0  0  0  0  0  0  0  0  0  0
    4.6759    2.9424    2.3161 H   0  0  0  0  0  0  0  0  0  0  0  0
    3.2457    1.2405    3.4259 H   0  0  0  0  0  0  0  0  0  0  0  0
    1.7508   -0.3782    3.1240 H   0  0  0  0  0  0  0  0  0  0  0  0
    1.4578   -1.1343   -0.2847 H   0  0  0  0  0  0  0  0  0  0  0  0
    1.2296   -0.0388   -1.6227 H   0  0  0  0  0  0  0  0  0  0  0  0
   -0.2607    0.0552    0.8843 H   0  0  0  0  0  0  0  0  0  0  0  0
   -0.2497    2.1658   -0.2713 H   0  0  0  0  0  0  0  0  0  0  0  0
   -0.8886    1.3301   -1.7194 H   0  0  0  0  0  0  0  0  0  0  0  0
   -2.7430    2.4141   -0.4397 H   0  0  0  0  0  0  0  0  0  0  0  0
   -2.2404    1.5843    1.0308 H   0  0  0  0  0  0  0  0  0  0  0  0
   -4.1466    0.3974    0.0523 H   0  0  0  0  0  0  0  0  0  0  0  0
   -3.3428    0.2979   -1.5132 H   0  0  0  0  0  0  0  0  0  0  0  0
   -3.1253   -1.8534   -0.3678 H   0  0  0  0  0  0  0  0  0  0  0  0
   -2.4843   -1.0765    1.0771 H   0  0  0  0  0  0  0  0  0  0  0  0
   -1.0973   -1.1763   -1.6694 H   0  0  0  0  0  0  0  0  0  0  0  0
   -0.6199   -2.0400   -0.1767 H   0  0  0  0  0  0  0  0  0  0  0  0
    3.7899    4.6239   -5.9700 H   0  0  0  0  0  0  0  0  0  0  0  0
 28  1  1  0
  1  2  1  0
  2  3  2  0
  3 29  1  0
  3  4  1  0
  4 30  1  0
  4  5  2  0
  5  6  1  0
  6  7  1  0
  7  8  1  0
  8  9  2  0
  8 10  1  0
  5 11  1  0
 10 11  2  0
 11 12  1  0
 12 13  1  0
 13 14  1  0
 14 31  1  0
 14 15  2  0
 15 32  1  0
 15 16  1  0
 16 17  1  0
 17 33  1  0
 16 18  2  0
 18 19  1  0
 19 34  1  0
 19 35  1  0
 19 20  1  0
 20 36  1  0
 20 21  1  0
 21 37  1  0
 21 38  1  0
 21 22  1  0
 22 39  1  0
 22 40  1  0
 22 23  1  0
 23 41  1  0
 23 42  1  0
 23 24  1  0
 24 43  1  0
 24 44  1  0
 20 25  1  0
 24 25  1  0
 25 45  1  0
 25 46  1  0
 13 26  2  0
 10 26  1  0
 18 26  1  0
  2 27  1  0
  6 27  2  0
 27 47  1  0
M  CHG  1  20   1
M  END
>  <conformer_energy>  (1) 
9.29

>  <ligand_smiles>  (1) 
O=c1oc2cc(O)ccc2c2oc3ccc(O)c(C[NH+]4CCCCC4)c3c12

>  <ligand_conf_name>  (1) 
MOL_0_isomer_0_conf_0

>  <ligand_molecule_name>  (1) 
MOL_0_isomer_0

$$$$
