MOL_0_isomer_0_conf_0
     RDKit          3D

 47 48  0  0  0  0  0  0  0  0999 V2000
    4.1452    0.4021    0.7613 C   0  0  0  0  0  0  0  0  0  0  0  0
    2.7846    0.2095    1.0313 C   0  0  0  0  0  0  0  0  0  0  0  0
    2.0376   -0.7547    0.3430 C   0  0  0  0  0  0  0  0  0  0  0  0
    0.6667   -0.9826    0.6061 N   0  0  0  0  0  0  0  0  0  0  0  0
   -0.1201   -0.4141    1.5909 C   0  0  0  0  0  0  0  0  0  0  0  0
    0.2861    0.2965    2.5096 O   0  0  0  0  0  0  0  0  0  0  0  0
   -1.5717   -0.8843    1.5676 C   0  0  0  0  0  0  0  0  0  0  0  0
   -2.2796   -0.8082    0.2237 C   0  0  0  0  0  0  0  0  0  0  0  0
   -2.3352    0.6501   -0.2098 C   0  0  0  0  0  0  0  0  0  0  0  0
   -3.3218    1.3015    0.2272 O   0  0  0  0  0  0  0  0  0  0  0  0
   -1.3960    1.0072   -0.9724 O   0  0  0  0  0  1  0  0  0  0  0  0
    2.6917   -1.5020   -0.6572 C   0  0  0  0  0  0  0  0  0  0  0  0
    1.9908   -2.5628   -1.4168 C   0  0  0  0  0  0  0  0  0  0  0  0
    1.4915   -3.4841   -0.7730 O   0  0  0  0  0  0  0  0  0  0  0  0
    1.9629   -2.4979   -2.8087 N   0  0  0  0  0  0  0  0  0  0  0  0
    2.2911   -1.3166   -3.6100 C   0  0  0  0  0  0  0  0  0  0  0  0
    1.1099   -0.8680   -4.4823 C   0  0  2  0  0  0  0  0  0  0  0  0
    0.0953   -0.0687   -3.6661 C   0  0  0  0  0  0  0  0  0  0  0  0
    0.4723   -2.0486   -5.2347 C   0  0  0  0  0  0  0  0  0  0  0  0
    0.2463   -3.3210   -4.3999 C   0  0  2  0  0  0  0  0  0  0  0  0
   -1.0188   -3.2676   -3.5418 C   0  0  0  0  0  0  0  0  0  0  0  0
    1.4835   -3.6516   -3.5599 C   0  0  0  0  0  0  0  0  0  0  0  0
    4.0642   -1.3333   -0.9084 C   0  0  0  0  0  0  0  0  0  0  0  0
    4.7793   -0.3751   -0.2007 C   0  0  0  0  0  0  0  0  0  0  0  0
    6.6198   -0.1280   -0.5499 Br  0  0  0  0  0  0  0  0  0  0  0  0
    4.6889    1.1629    1.3153 H   0  0  0  0  0  0  0  0  0  0  0  0
    2.3265    0.8457    1.7831 H   0  0  0  0  0  0  0  0  0  0  0  0
    0.2024   -1.6489   -0.0017 H   0  0  0  0  0  0  0  0  0  0  0  0
   -2.1222   -0.2916    2.3092 H   0  0  0  0  0  0  0  0  0  0  0  0
   -1.5791   -1.9232    1.9188 H   0  0  0  0  0  0  0  0  0  0  0  0
   -3.3003   -1.1970    0.3204 H   0  0  0  0  0  0  0  0  0  0  0  0
   -1.7851   -1.4115   -0.5437 H   0  0  0  0  0  0  0  0  0  0  0  0
    2.6195   -0.4807   -2.9883 H   0  0  0  0  0  0  0  0  0  0  0  0
    3.1361   -1.5974   -4.2504 H   0  0  0  0  0  0  0  0  0  0  0  0
    1.5002   -0.1736   -5.2384 H   0  0  0  0  0  0  0  0  0  0  0  0
   -0.2372   -0.6088   -2.7785 H   0  0  0  0  0  0  0  0  0  0  0  0
   -0.7834    0.1862   -4.2671 H   0  0  0  0  0  0  0  0  0  0  0  0
    0.5438    0.8701   -3.3218 H   0  0  0  0  0  0  0  0  0  0  0  0
   -0.4608   -1.7371   -5.7194 H   0  0  0  0  0  0  0  0  0  0  0  0
    1.1564   -2.3160   -6.0523 H   0  0  0  0  0  0  0  0  0  0  0  0
    0.0942   -4.1474   -5.1075 H   0  0  0  0  0  0  0  0  0  0  0  0
   -0.9189   -2.6021   -2.6827 H   0  0  0  0  0  0  0  0  0  0  0  0
   -1.2463   -4.2641   -3.1464 H   0  0  0  0  0  0  0  0  0  0  0  0
   -1.8810   -2.9432   -4.1338 H   0  0  0  0  0  0  0  0  0  0  0  0
    1.2832   -4.5027   -2.9002 H   0  0  0  0  0  0  0  0  0  0  0  0
    2.3042   -3.9559   -4.2218 H   0  0  0  0  0  0  0  0  0  0  0  0
    4.5576   -1.9540   -1.6508 H   0  0  0  0  0  0  0  0  0  0  0  0
 26  1  1  0
  1  2  2  0
  2 27  1  0
  2  3  1  0
  3  4  1  0
  4 28  1  0
  4  5  1  0
  5  6  2  0
  5  7  1  0
  7 29  1  0
  7 30  1  0
  7  8  1  0
  8 31  1  0
  8 32  1  0
  8  9  1  0
  9 10  2  0
  9 11  1  0
  3 12  2  0
 12 13  1  0
 13 14  2  0
 13 15  1  0
 15 16  1  0
 16 33  1  0
 16 34  1  0
 16 17  1  0
 17 35  1  6
 17 18  1  0
 18 36  1  0
 18 37  1  0
 18 38  1  0
 17 19  1  0
 19 39  1  0
 19 40  1  0
 19 20  1  0
 20 41  1  6
 20 21  1  0
 21 42  1  0
 21 43  1  0
 21 44  1  0
 15 22  1  0
 20 22  1  0
 22 45  1  0
 22 46  1  0
 12 23  1  0
 23 47  1  0
  1 24  1  0
 23 24  2  0
 24 25  1  0
M  CHG  1  11  -1
M  END
>  <conformer_energy>  (1) 
3.71

>  <ligand_smiles>  (1) 
C[C@@H]1C[C@H](C)CN(C(=O)c2cc(Br)ccc2NC(=O)CCC(=O)[O-])C1

>  <ligand_conf_name>  (1) 
MOL_0_isomer_0_conf_0

>  <ligand_molecule_name>  (1) 
MOL_0_isomer_0

$$$$
