MOL_0_isomer_0_conf_0
     RDKit          3D

 53 56  0  0  0  0  0  0  0  0999 V2000
   -2.6182   -4.0546   -3.9163 C   0  0  0  0  0  0  0  0  0  0  0  0
   -1.6333   -3.1526   -3.6962 N   0  0  0  0  0  0  0  0  0  0  0  0
   -0.4126   -3.4750   -4.1865 C   0  0  0  0  0  0  0  0  0  0  0  0
   -0.1172   -4.6625   -4.8505 C   0  0  0  0  0  0  0  0  0  0  0  0
    1.2861   -4.9605   -5.2958 C   0  0  0  0  0  0  0  0  0  0  0  0
    2.0674   -5.7193   -4.2228 C   0  0  0  0  0  0  0  0  0  0  0  0
    3.4664   -5.5782   -4.5063 O   0  0  0  0  0  0  0  0  0  0  0  0
    4.2059   -5.7135   -3.3569 C   0  0  0  0  0  0  0  0  0  0  0  0
    4.7359   -6.9737   -3.0795 C   0  0  0  0  0  0  0  0  0  0  0  0
    5.5032   -7.1460   -1.9370 C   0  0  0  0  0  0  0  0  0  0  0  0
    6.0058   -8.3545   -1.6555 F   0  0  0  0  0  0  0  0  0  0  0  0
    5.7596   -6.0831   -1.0791 C   0  0  0  0  0  0  0  0  0  0  0  0
    5.2434   -4.8174   -1.3712 C   0  0  0  0  0  0  0  0  0  0  0  0
    4.4603   -4.6046   -2.5208 C   0  0  0  0  0  0  0  0  0  0  0  0
    3.9423   -3.2573   -2.8190 C   0  0  0  0  0  0  0  0  0  0  0  0
    4.3554   -2.5752   -3.9738 C   0  0  0  0  0  0  0  0  0  0  0  0
    3.8845   -1.2960   -4.2911 C   0  0  0  0  0  0  0  0  0  0  0  0
    2.9718   -0.7181   -3.4075 C   0  0  0  0  0  0  0  0  0  0  0  0
    2.5249   -1.3515   -2.2548 C   0  0  0  0  0  0  0  0  0  0  0  0
    1.6074   -0.4330   -1.6700 C   0  0  0  0  0  0  0  0  0  0  0  0
    0.8169   -0.6061   -0.4089 C   0  0  0  0  0  0  0  0  0  0  0  0
   -0.6631   -0.2482   -0.4445 N   0  0  0  0  0  4  0  0  0  0  0  0
   -1.4214   -1.0608   -1.4539 C   0  0  0  0  0  0  0  0  0  0  0  0
   -0.9149    1.2222   -0.6134 C   0  0  0  0  0  0  0  0  0  0  0  0
    1.5007    0.6922   -2.3938 N   0  0  0  0  0  0  0  0  0  0  0  0
    2.3440    0.4976   -3.4269 N   0  0  0  0  0  0  0  0  0  0  0  0
    3.0200   -2.6359   -1.9504 C   0  0  0  0  0  0  0  0  0  0  0  0
   -1.1578   -5.5719   -5.0379 C   0  0  0  0  0  0  0  0  0  0  0  0
   -2.4314   -5.2616   -4.5713 C   0  0  0  0  0  0  0  0  0  0  0  0
   -3.6004   -3.7772   -3.5432 H   0  0  0  0  0  0  0  0  0  0  0  0
    0.3586   -2.7265   -4.0249 H   0  0  0  0  0  0  0  0  0  0  0  0
    1.7981   -4.0223   -5.5465 H   0  0  0  0  0  0  0  0  0  0  0  0
    1.2777   -5.5363   -6.2298 H   0  0  0  0  0  0  0  0  0  0  0  0
    1.8040   -6.7841   -4.2448 H   0  0  0  0  0  0  0  0  0  0  0  0
    1.8173   -5.3323   -3.2257 H   0  0  0  0  0  0  0  0  0  0  0  0
    4.5587   -7.8137   -3.7425 H   0  0  0  0  0  0  0  0  0  0  0  0
    6.3719   -6.2438   -0.1967 H   0  0  0  0  0  0  0  0  0  0  0  0
    5.4772   -3.9896   -0.7044 H   0  0  0  0  0  0  0  0  0  0  0  0
    5.0687   -3.0490   -4.6501 H   0  0  0  0  0  0  0  0  0  0  0  0
    4.2251   -0.7857   -5.1874 H   0  0  0  0  0  0  0  0  0  0  0  0
    1.2600   -0.0012    0.3911 H   0  0  0  0  0  0  0  0  0  0  0  0
    0.8541   -1.6500   -0.0765 H   0  0  0  0  0  0  0  0  0  0  0  0
   -1.0304   -0.5009    0.4779 H   0  0  0  0  0  0  0  0  0  0  0  0
   -1.0920   -0.7796   -2.4564 H   0  0  0  0  0  0  0  0  0  0  0  0
   -2.4857   -0.8460   -1.3246 H   0  0  0  0  0  0  0  0  0  0  0  0
   -1.2287   -2.1151   -1.2420 H   0  0  0  0  0  0  0  0  0  0  0  0
   -0.7622    1.5100   -1.6552 H   0  0  0  0  0  0  0  0  0  0  0  0
   -0.2497    1.7702    0.0587 H   0  0  0  0  0  0  0  0  0  0  0  0
   -1.9549    1.4083   -0.3299 H   0  0  0  0  0  0  0  0  0  0  0  0
    2.4473    1.2329   -4.1201 H   0  0  0  0  0  0  0  0  0  0  0  0
    2.6903   -3.1601   -1.0568 H   0  0  0  0  0  0  0  0  0  0  0  0
   -0.9871   -6.5167   -5.5493 H   0  0  0  0  0  0  0  0  0  0  0  0
   -3.2599   -5.9470   -4.7173 H   0  0  0  0  0  0  0  0  0  0  0  0
 30  1  1  0
  1  2  2  0
  2  3  1  0
  3 31  1  0
  3  4  2  0
  4  5  1  0
  5 32  1  0
  5 33  1  0
  5  6  1  0
  6 34  1  0
  6 35  1  0
  6  7  1  0
  7  8  1  0
  8  9  2  0
  9 36  1  0
  9 10  1  0
 10 11  1  0
 10 12  2  0
 12 37  1  0
 12 13  1  0
 13 38  1  0
  8 14  1  0
 13 14  2  0
 14 15  1  0
 15 16  2  0
 16 39  1  0
 16 17  1  0
 17 40  1  0
 17 18  2  0
 18 19  1  0
 19 20  1  0
 20 21  1  0
 21 41  1  0
 21 42  1  0
 21 22  1  0
 22 43  1  0
 22 23  1  0
 23 44  1  0
 23 45  1  0
 23 46  1  0
 22 24  1  0
 24 47  1  0
 24 48  1  0
 24 49  1  0
 20 25  2  0
 18 26  1  0
 25 26  1  0
 26 50  1  0
 15 27  1  0
 19 27  2  0
 27 51  1  0
  4 28  1  0
 28 52  1  0
  1 29  1  0
 28 29  2  0
 29 53  1  0
M  CHG  1  22   1
M  END
>  <conformer_energy>  (1) 
80.04

>  <ligand_smiles>  (1) 
C[NH+](C)Cc1n[nH]c2ccc(-c3ccc(F)cc3OCCc3cccnc3)cc12

>  <ligand_conf_name>  (1) 
MOL_0_isomer_0_conf_0

>  <ligand_molecule_name>  (1) 
MOL_0_isomer_0

$$$$
