MOL_0_isomer_0_conf_0
     RDKit          3D

 31 31  0  0  0  0  0  0  0  0999 V2000
   -0.6437   -0.2063   -1.2793 N   0  0  0  0  0  0  0  0  0  0  0  0
   -0.0551    0.2665   -0.1242 C   0  0  0  0  0  0  0  0  0  0  0  0
   -0.7171    0.7338    0.7967 O   0  0  0  0  0  0  0  0  0  0  0  0
    1.3958    0.1821   -0.1156 C   0  0  0  0  0  0  0  0  0  0  0  0
    2.3248    0.9836    0.5536 C   0  0  0  0  0  0  0  0  0  0  0  0
    1.9514    2.1497    1.4273 C   0  0  0  0  0  0  0  0  0  0  0  0
    1.8164    1.7564    2.8912 C   0  0  0  0  0  0  0  0  0  0  0  0
    3.6456    0.4650    0.2577 C   0  0  0  0  0  0  0  0  0  0  0  0
    4.9887    0.9121    0.6829 C   0  0  0  0  0  0  0  0  0  0  0  0
    5.9802    0.1937    0.5280 O   0  0  0  0  0  0  0  0  0  0  0  0
    5.1788    2.2702    1.3010 C   0  0  0  0  0  0  0  0  0  0  0  0
    3.4470   -0.6465   -0.5572 C   0  0  0  0  0  0  0  0  0  0  0  0
    4.4208   -1.5980   -1.1636 C   0  0  0  0  0  0  0  0  0  0  0  0
    2.1045   -0.8035   -0.7553 N   0  0  0  0  0  0  0  0  0  0  0  0
   -2.0754   -0.1984   -1.4366 C   0  0  0  0  0  0  0  0  0  0  0  0
   -0.0712   -0.4163   -2.0828 H   0  0  0  0  0  0  0  0  0  0  0  0
    1.0055    2.5869    1.0865 H   0  0  0  0  0  0  0  0  0  0  0  0
    2.6771    2.9590    1.3250 H   0  0  0  0  0  0  0  0  0  0  0  0
    2.7491    1.3370    3.2817 H   0  0  0  0  0  0  0  0  0  0  0  0
    1.0323    1.0045    3.0292 H   0  0  0  0  0  0  0  0  0  0  0  0
    1.5568    2.6310    3.4959 H   0  0  0  0  0  0  0  0  0  0  0  0
    4.7825    3.0442    0.6396 H   0  0  0  0  0  0  0  0  0  0  0  0
    6.2492    2.4621    1.4288 H   0  0  0  0  0  0  0  0  0  0  0  0
    4.7124    2.3099    2.2866 H   0  0  0  0  0  0  0  0  0  0  0  0
    3.9233   -2.3135   -1.8269 H   0  0  0  0  0  0  0  0  0  0  0  0
    4.9355   -2.1674   -0.3833 H   0  0  0  0  0  0  0  0  0  0  0  0
    5.1660   -1.0592   -1.7573 H   0  0  0  0  0  0  0  0  0  0  0  0
    1.6831   -1.5702   -1.2622 H   0  0  0  0  0  0  0  0  0  0  0  0
   -2.5543   -0.5920   -0.5359 H   0  0  0  0  0  0  0  0  0  0  0  0
   -2.3354   -0.8181   -2.2978 H   0  0  0  0  0  0  0  0  0  0  0  0
   -2.4057    0.8299   -1.6057 H   0  0  0  0  0  0  0  0  0  0  0  0
 16  1  1  0
  1  2  1  0
  2  3  2  0
  2  4  1  0
  4  5  2  0
  5  6  1  0
  6 17  1  0
  6 18  1  0
  6  7  1  0
  7 19  1  0
  7 20  1  0
  7 21  1  0
  5  8  1  0
  8  9  1  0
  9 10  2  0
  9 11  1  0
 11 22  1  0
 11 23  1  0
 11 24  1  0
  8 12  2  0
 12 13  1  0
 13 25  1  0
 13 26  1  0
 13 27  1  0
  4 14  1  0
 12 14  1  0
 14 28  1  0
  1 15  1  0
 15 29  1  0
 15 30  1  0
 15 31  1  0
M  END
>  <conformer_energy>  (1) 
-1.57

>  <ligand_smiles>  (1) 
CCc1c(C(=O)NC)[nH]c(C)c1C(C)=O

>  <ligand_conf_name>  (1) 
MOL_0_isomer_0_conf_0

>  <ligand_molecule_name>  (1) 
MOL_0_isomer_0

$$$$
