1N2V - prepared_ligand_conf_0
     RDKit          3D

 26 27  0  0  0  0  0  0  0  0999 V2000
   -4.6490   -0.3549    0.0992 N   0  0  0  0  0  0  0  0  0  0  0  0
   -4.4345    0.5227   -1.1321 N   0  0  0  0  0  0  0  0  0  0  0  0
   -3.1838    0.8223   -1.5270 C   0  0  0  0  0  0  0  0  0  0  0  0
   -2.8990    1.5159   -2.4998 O   0  0  0  0  0  0  0  0  0  0  0  0
   -2.1528    0.2577   -0.7062 C   0  0  0  0  0  0  0  0  0  0  0  0
   -2.3041   -0.5331    0.4057 C   0  0  0  0  0  0  0  0  0  0  0  0
   -1.0690   -0.8837    0.9286 N   0  0  0  0  0  0  0  0  0  0  0  0
   -0.1841   -0.2972    0.1432 C   0  0  0  0  0  0  0  0  0  0  0  0
    1.2973   -0.3688    0.2698 C   0  0  0  0  0  0  0  0  0  0  0  0
    1.9654    0.9788    0.5573 C   0  0  0  0  0  0  0  0  0  0  0  0
    1.9144    1.4328    2.0202 C   0  0  0  0  0  0  0  0  0  0  0  0
    0.5429    1.8838    2.4945 C   0  0  0  0  0  0  0  0  0  0  0  0
   -0.8066    0.3930   -0.8693 N   0  0  0  0  0  0  0  0  0  0  0  0
   -3.6294   -0.8880    0.8745 C   0  0  0  0  0  0  0  0  0  0  0  0
   -3.8643   -1.5890    1.8571 O   0  0  0  0  0  0  0  0  0  0  0  0
   -5.6065   -0.5499    0.3516 H   0  0  0  0  0  0  0  0  0  0  0  0
    1.6964   -0.7621   -0.6740 H   0  0  0  0  0  0  0  0  0  0  0  0
    1.5678   -1.0951    1.0452 H   0  0  0  0  0  0  0  0  0  0  0  0
    1.5642    1.7662   -0.0923 H   0  0  0  0  0  0  0  0  0  0  0  0
    3.0266    0.8765    0.2943 H   0  0  0  0  0  0  0  0  0  0  0  0
    2.6050    2.2777    2.1340 H   0  0  0  0  0  0  0  0  0  0  0  0
    2.2861    0.6364    2.6752 H   0  0  0  0  0  0  0  0  0  0  0  0
    0.6266    2.3636    3.4752 H   0  0  0  0  0  0  0  0  0  0  0  0
   -0.1410    1.0395    2.6070 H   0  0  0  0  0  0  0  0  0  0  0  0
    0.1005    2.6066    1.8021 H   0  0  0  0  0  0  0  0  0  0  0  0
   -0.3764    0.9238   -1.6123 H   0  0  0  0  0  0  0  0  0  0  0  0
 16  1  1  0
  1  2  1  0
  2  3  1  0
  3  4  2  0
  3  5  1  0
  5  6  2  0
  6  7  1  0
  7  8  2  0
  8  9  1  0
  9 17  1  0
  9 18  1  0
  9 10  1  0
 10 19  1  0
 10 20  1  0
 10 11  1  0
 11 21  1  0
 11 22  1  0
 11 12  1  0
 12 23  1  0
 12 24  1  0
 12 25  1  0
  5 13  1  0
  8 13  1  0
 13 26  1  0
  1 14  1  0
  6 14  1  0
 14 15  2  0
M  CHG  1   2  -1
M  END
>  <conformer_energy>  (1) 
77.79

>  <ligand_smiles>  (1) 
CCCCc1nc2c(=O)[nH][n-]c(=O)c2[nH]1

>  <ligand_conf_name>  (1) 
1N2V - prepared_ligand_conf_0

>  <ligand_molecule_name>  (1) 
1N2V - prepared_ligand

>  <fragInfo>  (1) 
1 2 3 4 5 6 7 8 13 14 15 16 26
9 17 18
10 19 20
11 12 21 22 23 24 25


>  <torsionInfo>  (1) 
8 9 0 1
9 10 1 2
10 11 2 3


>  <atomInfo>  (1) 
1  -0.422147 N 
2  -0.558415 NA
3  0.116168  A 
4  -0.311935 OA
5  0.097582  A 
6  0.154077  A 
7  -0.227566 NA
8  0.107022  A 
9  0.005497  C 
10 -0.046503 C 
11 -0.055742 C 
12 -0.065369 C 
13 -0.340151 N 
14 0.258647  A 
15 -0.268653 OA
16 0.143945  HD
17 0.034807  H 
18 0.034807  H 
19 0.027094  H 
20 0.027094  H 
21 0.026384  H 
22 0.026384  H 
23 0.023036  H 
24 0.023036  H 
25 0.023036  H 
26 0.167866  HD


$$$$
