MOL_0_isomer_0_conf_0
     RDKit          3D

 31 33  0  0  0  0  0  0  0  0999 V2000
   -4.1706   -0.2050    0.0585 O   0  0  0  0  0  0  0  0  0  0  0  0
   -2.8076   -0.1359    0.0492 C   0  0  0  0  0  0  0  0  0  0  0  0
   -2.1008   -0.5452    1.1677 C   0  0  0  0  0  0  0  0  0  0  0  0
   -0.7041   -0.4759    1.1568 C   0  0  0  0  0  0  0  0  0  0  0  0
   -0.0113    0.0119    0.0319 C   0  0  0  0  0  0  0  0  0  0  0  0
    1.4665    0.0833   -0.0013 C   0  0  0  0  0  0  0  0  0  0  0  0
    2.0147   -0.1820   -1.2475 O   0  0  0  0  0  0  0  0  0  0  0  0
    3.3764   -0.1266   -1.3961 C   0  0  0  0  0  0  0  0  0  0  0  0
    3.9184   -0.3867   -2.6514 C   0  0  0  0  0  0  0  0  0  0  0  0
    3.1060   -0.6815   -3.7139 O   0  0  0  0  0  0  0  0  0  0  0  0
    5.3007   -0.3481   -2.8488 C   0  0  0  0  0  0  0  0  0  0  0  0
    5.7672   -0.6155   -4.1069 O   0  0  0  0  0  0  0  0  0  0  0  0
    6.1619   -0.0470   -1.7988 C   0  0  0  0  0  0  0  0  0  0  0  0
    5.6247    0.2197   -0.5371 C   0  0  0  0  0  0  0  0  0  0  0  0
    4.2359    0.1788   -0.3441 C   0  0  0  0  0  0  0  0  0  0  0  0
    3.6567    0.4644    0.9759 C   0  0  0  0  0  0  0  0  0  0  0  0
    4.3495    0.7421    1.9458 O   0  0  0  0  0  0  0  0  0  0  0  0
    2.1904    0.4042    1.0813 C   0  0  0  0  0  0  0  0  0  0  0  0
   -0.7528    0.4103   -1.0957 C   0  0  0  0  0  0  0  0  0  0  0  0
   -2.1423    0.3349   -1.0776 C   0  0  0  0  0  0  0  0  0  0  0  0
   -2.9001    0.7128   -2.1521 O   0  0  0  0  0  0  0  0  0  0  0  0
   -4.4377    0.1250   -0.8227 H   0  0  0  0  0  0  0  0  0  0  0  0
   -2.6291   -0.9216    2.0385 H   0  0  0  0  0  0  0  0  0  0  0  0
   -0.1667   -0.8232    2.0365 H   0  0  0  0  0  0  0  0  0  0  0  0
    3.7174   -0.8348   -4.4620 H   0  0  0  0  0  0  0  0  0  0  0  0
    6.7389   -0.5591   -4.0938 H   0  0  0  0  0  0  0  0  0  0  0  0
    7.2381   -0.0131   -1.9375 H   0  0  0  0  0  0  0  0  0  0  0  0
    6.2838    0.4598    0.2956 H   0  0  0  0  0  0  0  0  0  0  0  0
    1.7683    0.6379    2.0498 H   0  0  0  0  0  0  0  0  0  0  0  0
   -0.2374    0.7795   -1.9784 H   0  0  0  0  0  0  0  0  0  0  0  0
   -2.2962    0.9742   -2.8693 H   0  0  0  0  0  0  0  0  0  0  0  0
 22  1  1  0
  1  2  1  0
  2  3  2  0
  3 23  1  0
  3  4  1  0
  4 24  1  0
  4  5  2  0
  5  6  1  0
  6  7  1  0
  7  8  1  0
  8  9  2  0
  9 10  1  0
 10 25  1  0
  9 11  1  0
 11 12  1  0
 12 26  1  0
 11 13  2  0
 13 27  1  0
 13 14  1  0
 14 28  1  0
  8 15  1  0
 14 15  2  0
 15 16  1  0
 16 17  2  0
  6 18  2  0
 16 18  1  0
 18 29  1  0
  5 19  1  0
 19 30  1  0
  2 20  1  0
 19 20  2  0
 20 21  1  0
 21 31  1  0
M  END
>  <conformer_energy>  (1) 
32.89

>  <ligand_smiles>  (1) 
O=c1cc(-c2ccc(O)c(O)c2)oc2c(O)c(O)ccc12

>  <ligand_conf_name>  (1) 
MOL_0_isomer_0_conf_0

>  <ligand_molecule_name>  (1) 
MOL_0_isomer_0

$$$$
