1MEH - prepared_ligand2_conf_0
     RDKit          3D

 42 43  0  0  0  0  0  0  0  0999 V2000
    0.6483   -2.3556   -0.5344 O   0  0  0  0  0  0  0  0  0  0  0  0
    1.7156   -1.5436   -0.2796 C   0  0  0  0  0  0  0  0  0  0  0  0
    2.9848   -2.0615   -0.0954 C   0  0  0  0  0  0  0  0  0  0  0  0
    4.0886   -1.2741    0.1621 C   0  0  0  0  0  0  0  0  0  0  0  0
    3.9692    0.1090    0.2155 C   0  0  0  0  0  0  0  0  0  0  0  0
    5.1596    0.9814    0.4848 C   0  0  0  0  0  0  0  0  0  0  0  0
    2.6874    0.6580   -0.0199 C   0  0  0  0  0  0  0  0  0  0  0  0
    2.5588    2.0256   -0.0052 O   0  0  0  0  0  0  0  0  0  0  0  0
    2.6643    2.5533   -1.3301 C   0  0  0  0  0  0  0  0  0  0  0  0
    1.5397   -0.1536   -0.1985 C   0  0  0  0  0  0  0  0  0  0  0  0
    0.1436    0.4378   -0.1737 C   0  0  0  0  0  0  0  0  0  0  0  0
   -0.5557    0.1510    1.1312 C   0  0  0  0  0  0  0  0  0  0  0  0
   -0.4969    0.8687    2.2727 C   0  0  0  0  0  0  0  0  0  0  0  0
    0.2546    2.1674    2.4259 C   0  0  0  0  0  0  0  0  0  0  0  0
   -1.1741    0.3634    3.5367 C   0  0  0  0  0  0  0  0  0  0  0  0
   -0.1968   -0.2990    4.5042 C   0  0  0  0  0  0  0  0  0  0  0  0
    0.5218    0.6855    5.4221 C   0  0  0  0  0  0  0  0  0  0  0  0
   -0.2213    1.4882    6.0581 O   0  0  0  0  0  0  0  0  0  0  0  0
    1.7797    0.5580    5.4633 O   0  0  0  0  0  0  0  0  0  0  0  0
    5.2634   -2.1507    0.3550 C   0  0  0  0  0  0  0  0  0  0  0  0
    4.7443   -3.4779    0.1232 O   0  0  0  0  0  0  0  0  0  0  0  0
    3.4001   -3.4515   -0.1205 C   0  0  0  0  0  0  0  0  0  0  0  0
    2.6656   -4.3976   -0.3421 O   0  0  0  0  0  0  0  0  0  0  0  0
    0.9230   -3.2821   -0.3652 H   0  0  0  0  0  0  0  0  0  0  0  0
    5.6040    1.3033   -0.4585 H   0  0  0  0  0  0  0  0  0  0  0  0
    5.9193    0.4433    1.0655 H   0  0  0  0  0  0  0  0  0  0  0  0
    4.8814    1.8641    1.0692 H   0  0  0  0  0  0  0  0  0  0  0  0
    2.7492    3.6372   -1.2454 H   0  0  0  0  0  0  0  0  0  0  0  0
    1.7684    2.3340   -1.9182 H   0  0  0  0  0  0  0  0  0  0  0  0
    3.5533    2.1911   -1.8551 H   0  0  0  0  0  0  0  0  0  0  0  0
   -0.4460    0.0073   -0.9954 H   0  0  0  0  0  0  0  0  0  0  0  0
    0.1519    1.5110   -0.3797 H   0  0  0  0  0  0  0  0  0  0  0  0
   -1.1177   -0.7865    1.1402 H   0  0  0  0  0  0  0  0  0  0  0  0
   -0.2967    2.8552    3.0806 H   0  0  0  0  0  0  0  0  0  0  0  0
    0.3782    2.6903    1.4770 H   0  0  0  0  0  0  0  0  0  0  0  0
    1.2444    1.9889    2.8600 H   0  0  0  0  0  0  0  0  0  0  0  0
   -1.9321   -0.3849    3.2605 H   0  0  0  0  0  0  0  0  0  0  0  0
   -1.7309    1.1844    4.0083 H   0  0  0  0  0  0  0  0  0  0  0  0
    0.5316   -0.9146    3.9622 H   0  0  0  0  0  0  0  0  0  0  0  0
   -0.7525   -0.9794    5.1609 H   0  0  0  0  0  0  0  0  0  0  0  0
    5.6530   -2.1032    1.3750 H   0  0  0  0  0  0  0  0  0  0  0  0
    6.0513   -1.9538   -0.3750 H   0  0  0  0  0  0  0  0  0  0  0  0
 24  1  1  0
  1  2  1  0
  2  3  2  0
  3  4  1  0
  4  5  2  0
  5  6  1  0
  6 25  1  0
  6 26  1  0
  6 27  1  0
  5  7  1  0
  7  8  1  0
  8  9  1  0
  9 28  1  0
  9 29  1  0
  9 30  1  0
  2 10  1  0
  7 10  2  0
 10 11  1  0
 11 31  1  0
 11 32  1  0
 11 12  1  0
 12 33  1  0
 12 13  2  0
 13 14  1  0
 14 34  1  0
 14 35  1  0
 14 36  1  0
 13 15  1  0
 15 37  1  0
 15 38  1  0
 15 16  1  0
 16 39  1  0
 16 40  1  0
 16 17  1  0
 17 18  2  0
 17 19  1  0
  4 20  1  0
 20 41  1  0
 20 42  1  0
 20 21  1  0
  3 22  1  0
 21 22  1  0
 22 23  2  0
M  CHG  1  19  -1
M  END
>  <conformer_energy>  (1) 
51.67

>  <ligand_smiles>  (1) 
COc1c(C)c2c(c(O)c1C/C=C(\C)CCC(=O)[O-])C(=O)OC2

>  <ligand_conf_name>  (1) 
1MEH - prepared_ligand2_conf_0

>  <ligand_molecule_name>  (1) 
1MEH - prepared_ligand2

>  <fragInfo>  (1) 
1 2 3 4 5 6 7 10 20 21 22 23 24 25 26 27 41 42
8 9 28 29 30
11 31 32
12 13 14 33 34 35 36
15 37 38
16 39 40
17 18 19


>  <torsionInfo>  (1) 
7 8 0 1
10 11 0 2
11 12 2 3
13 15 3 4
15 16 4 5
16 17 5 6


>  <atomInfo>  (1) 
1  -0.506590 OA
2  0.137269  A 
3  0.108765  A 
4  0.014326  A 
5  -0.000949 A 
6  -0.035651 C 
7  0.128926  A 
8  -0.496028 OA
9  0.077542  C 
10 0.040824  A 
11 -0.002084 C 
12 -0.080912 C 
13 -0.076604 C 
14 -0.043911 C 
15 -0.027058 C 
16 -0.009415 C 
17 0.041702  C 
18 -0.550160 OA
19 -0.550160 OA
20 0.118135  C 
21 -0.457071 OA
22 0.342193  C 
23 -0.246022 OA
24 0.293152  HD
25 0.028115  H 
26 0.028115  H 
27 0.028115  H 
28 0.066862  H 
29 0.066862  H 
30 0.066862  H 
31 0.036226  H 
32 0.036226  H 
33 0.057883  H 
34 0.027620  H 
35 0.027620  H 
36 0.027620  H 
37 0.031622  H 
38 0.031622  H 
39 0.033178  H 
40 0.033178  H 
41 0.076027  H 
42 0.076027  H 


$$$$
