MOL_0_isomer_0_conf_0
     RDKit          3D

 20 19  0  0  0  0  0  0  0  0999 V2000
    3.3334    0.9714   -1.8547 O   0  0  0  0  0  0  0  0  0  0  0  0
    4.1284    0.0833   -1.1193 N   0  0  0  0  0  0  0  0  0  0  0  0
    3.3971   -0.7694   -0.4521 C   0  0  0  0  0  0  0  0  0  0  0  0
    1.8910   -0.7803   -0.4804 C   0  0  0  0  0  0  0  0  0  0  0  0
    1.2718   -1.5943   -1.1424 O   0  0  0  0  0  0  0  0  0  0  0  0
    1.4137    0.1806    0.3349 O   0  0  0  0  0  0  0  0  0  0  0  0
   -0.0145    0.2644    0.4173 C   0  0  0  0  0  0  0  0  0  0  0  0
   -0.5314   -0.6750    1.4908 C   0  0  0  0  0  0  0  0  0  0  0  0
    4.1140   -1.8110    0.3598 C   0  0  0  0  0  0  0  0  0  0  0  0
    3.7674   -2.0068    1.5171 O   0  0  0  0  0  0  0  0  0  0  0  0
    5.2259   -2.5450   -0.3268 C   0  0  0  0  0  0  0  0  0  0  0  0
    3.9924    1.5595   -2.2727 H   0  0  0  0  0  0  0  0  0  0  0  0
   -0.2611    1.2978    0.6819 H   0  0  0  0  0  0  0  0  0  0  0  0
   -0.4828    0.0592   -0.5524 H   0  0  0  0  0  0  0  0  0  0  0  0
   -1.6150   -0.5780    1.6023 H   0  0  0  0  0  0  0  0  0  0  0  0
   -0.0560   -0.4579    2.4531 H   0  0  0  0  0  0  0  0  0  0  0  0
   -0.2966   -1.7161    1.2475 H   0  0  0  0  0  0  0  0  0  0  0  0
    4.8742   -2.9410   -1.2830 H   0  0  0  0  0  0  0  0  0  0  0  0
    6.0753   -1.8755   -0.4819 H   0  0  0  0  0  0  0  0  0  0  0  0
    5.5455   -3.3844    0.2971 H   0  0  0  0  0  0  0  0  0  0  0  0
 12  1  1  0
  1  2  1  0
  2  3  2  0
  3  4  1  0
  4  5  2  0
  4  6  1  0
  6  7  1  0
  7 13  1  0
  7 14  1  0
  7  8  1  0
  8 15  1  0
  8 16  1  0
  8 17  1  0
  3  9  1  0
  9 10  2  0
  9 11  1  0
 11 18  1  0
 11 19  1  0
 11 20  1  0
M  END
>  <conformer_energy>  (1) 
59.24

>  <ligand_smiles>  (1) 
CCOC(=O)/C(=N\O)C(C)=O

>  <ligand_conf_name>  (1) 
MOL_0_isomer_0_conf_0

>  <ligand_molecule_name>  (1) 
MOL_0_isomer_0

$$$$
