MOL_0_isomer_0_conf_0
     RDKit          3D

 24 24  0  0  0  0  0  0  0  0999 V2000
    1.8799   -2.3291    0.9697 O   0  0  0  0  0  0  0  0  0  0  0  0
    2.1076   -1.4174   -0.1219 C   0  0  2  0  0  0  0  0  0  0  0  0
    1.4545   -0.0150   -0.0364 C   0  0  2  0  0  0  0  0  0  0  0  0
    0.0589   -0.0936    0.2090 O   0  0  0  0  0  0  0  0  0  0  0  0
   -0.4186    0.0279    1.7722 P   0  0  0  0  0  5  0  0  0  0  0  0
   -1.9222   -0.1884    1.7288 O   0  0  0  0  0  0  0  0  0  0  0  0
    0.0189    1.4159    2.2091 O   0  0  0  0  0  1  0  0  0  0  0  0
    0.3478   -1.0997    2.4547 O   0  0  0  0  0  1  0  0  0  0  0  0
    1.6697    0.7221   -1.3538 C   0  0  0  0  0  0  0  0  0  0  0  0
    2.0358    0.1400   -2.5191 C   0  0  0  0  0  0  0  0  0  0  0  0
    2.3618    0.9652   -3.7970 C   0  0  0  0  0  0  0  0  0  0  0  0
    2.4001    0.3028   -4.8787 O   0  0  0  0  0  0  0  0  0  0  0  0
    2.6090    2.1955   -3.6327 O   0  0  0  0  0  1  0  0  0  0  0  0
    2.1543   -1.3611   -2.6429 C   0  0  0  0  0  0  0  0  0  0  0  0
    1.6669   -2.1272   -1.4086 C   0  0  1  0  0  0  0  0  0  0  0  0
    2.2128   -3.4677   -1.4008 O   0  0  0  0  0  0  0  0  0  0  0  0
    1.2375   -1.8562    1.5893 H   0  0  0  0  0  0  0  0  0  0  0  0
    3.1987   -1.2943   -0.1507 H   0  0  0  0  0  0  0  0  0  0  0  0
    1.9467    0.5486    0.7644 H   0  0  0  0  0  0  0  0  0  0  0  0
    1.5449    1.8013   -1.3025 H   0  0  0  0  0  0  0  0  0  0  0  0
    1.5846   -1.7212   -3.5085 H   0  0  0  0  0  0  0  0  0  0  0  0
    3.2029   -1.6178   -2.8426 H   0  0  0  0  0  0  0  0  0  0  0  0
    0.5762   -2.2406   -1.4272 H   0  0  0  0  0  0  0  0  0  0  0  0
    2.1154   -3.6966   -0.4488 H   0  0  0  0  0  0  0  0  0  0  0  0
 17  1  1  0
  1  2  1  0
  2 18  1  6
  2  3  1  0
  3 19  1  1
  3  4  1  0
  4  5  1  0
  5  6  2  0
  5  7  1  0
  5  8  1  0
  3  9  1  0
  9 20  1  0
  9 10  2  0
 10 11  1  0
 11 12  2  0
 11 13  1  0
 10 14  1  0
 14 21  1  0
 14 22  1  0
  2 15  1  0
 14 15  1  0
 15 23  1  6
 15 16  1  0
 16 24  1  0
M  CHG  3   7  -1   8  -1  13  -1
M  END
>  <conformer_energy>  (1) 
45.14

>  <ligand_smiles>  (1) 
O=C([O-])C1=C[C@@H](OP(=O)([O-])[O-])[C@@H](O)[C@H](O)C1

>  <ligand_conf_name>  (1) 
MOL_0_isomer_0_conf_0

>  <ligand_molecule_name>  (1) 
MOL_0_isomer_0

$$$$
