1V48 - prepared_ligand_conf_0
     RDKit          3D

 34 35  0  0  0  0  0  0  0  0999 V2000
   -1.2148   -0.1709   -0.8311 C   0  0  0  0  0  0  0  0  0  0  0  0
   -2.3848   -0.5026   -0.3079 N   0  0  0  0  0  0  0  0  0  0  0  0
   -2.1337   -0.6026    1.0357 C   0  0  0  0  0  0  0  0  0  0  0  0
   -3.0175   -0.9204    2.1336 C   0  0  0  0  0  0  0  0  0  0  0  0
   -4.2163   -1.1843    2.0599 O   0  0  0  0  0  0  0  0  0  0  0  0
   -2.3637   -0.9103    3.3596 N   0  0  0  0  0  0  0  0  0  0  0  0
   -1.0211   -0.6422    3.5270 C   0  0  0  0  0  0  0  0  0  0  0  0
   -0.5520   -0.6775    4.7938 N   0  0  0  0  0  0  0  0  0  0  0  0
   -0.2071   -0.3646    2.5478 N   0  0  0  0  0  0  0  0  0  0  0  0
   -0.8119   -0.3523    1.3329 C   0  0  0  0  0  0  0  0  0  0  0  0
   -0.2319   -0.0796    0.1264 N   0  0  0  0  0  0  0  0  0  0  0  0
    1.1663    0.2099   -0.1248 C   0  0  0  0  0  0  0  0  0  0  0  0
    1.4423    1.7071   -0.2226 C   0  0  0  0  0  0  0  0  0  0  0  0
    2.9315    2.0727   -0.2479 C   0  0  0  0  0  0  0  0  0  0  0  0
    3.8209    1.3220   -1.2408 C   0  0  0  0  0  0  0  0  0  0  0  0
    3.8709    1.8737   -2.6521 C   0  0  0  0  0  0  0  0  0  0  0  0
    4.3684    3.1422   -2.6608 F   0  0  0  0  0  0  0  0  0  0  0  0
    4.7394    1.1086   -3.3818 F   0  0  0  0  0  0  0  0  0  0  0  0
    2.2870    1.9174   -3.6679 P   0  0  0  0  0  5  0  0  0  0  0  0
    1.5328    3.1544   -3.1697 O   0  0  0  0  0  0  0  0  0  0  0  0
    1.5820    0.6034   -3.2995 O   0  0  0  0  0  0  0  0  0  0  0  0
    2.7098    2.0042   -5.1358 O   0  0  0  0  0  0  0  0  0  0  0  0
   -0.9998    0.0189   -1.8803 H   0  0  0  0  0  0  0  0  0  0  0  0
   -2.9447   -1.1210    4.1488 H   0  0  0  0  0  0  0  0  0  0  0  0
    0.4307   -0.4649    4.9147 H   0  0  0  0  0  0  0  0  0  0  0  0
   -1.1208   -0.8578    5.6026 H   0  0  0  0  0  0  0  0  0  0  0  0
    1.4414   -0.3309   -1.0329 H   0  0  0  0  0  0  0  0  0  0  0  0
    1.7451   -0.2312    0.6951 H   0  0  0  0  0  0  0  0  0  0  0  0
    0.9246    2.1157   -1.0916 H   0  0  0  0  0  0  0  0  0  0  0  0
    0.9918    2.2150    0.6410 H   0  0  0  0  0  0  0  0  0  0  0  0
    3.0341    3.1541   -0.3977 H   0  0  0  0  0  0  0  0  0  0  0  0
    3.3254    1.8705    0.7574 H   0  0  0  0  0  0  0  0  0  0  0  0
    4.8473    1.3717   -0.8532 H   0  0  0  0  0  0  0  0  0  0  0  0
    3.5786    0.2557   -1.2683 H   0  0  0  0  0  0  0  0  0  0  0  0
 23  1  1  0
  1  2  2  0
  2  3  1  0
  3  4  1  0
  4  5  2  0
  4  6  1  0
  6 24  1  0
  6  7  1  0
  7  8  1  0
  8 25  1  0
  8 26  1  0
  7  9  2  0
  3 10  2  0
  9 10  1  0
  1 11  1  0
 10 11  1  0
 11 12  1  0
 12 27  1  0
 12 28  1  0
 12 13  1  0
 13 29  1  0
 13 30  1  0
 13 14  1  0
 14 31  1  0
 14 32  1  0
 14 15  1  0
 15 33  1  0
 15 34  1  0
 15 16  1  0
 16 17  1  0
 16 18  1  0
 16 19  1  0
 19 20  2  0
 19 21  1  0
 19 22  1  0
M  CHG  2  21  -1  22  -1
M  END
>  <conformer_energy>  (1) 
101.31

>  <ligand_smiles>  (1) 
Nc1nc2c(ncn2CCCCC(F)(F)P(=O)([O-])[O-])c(=O)[nH]1

>  <ligand_conf_name>  (1) 
1V48 - prepared_ligand_conf_0

>  <ligand_molecule_name>  (1) 
1V48 - prepared_ligand

>  <fragInfo>  (1) 
1 2 3 4 5 6 7 8 9 10 11 23 24 25 26
12 27 28
13 29 30
14 31 32
15 33 34
16 17 18 19 20 21 22


>  <torsionInfo>  (1) 
11 12 0 1
12 13 1 2
13 14 2 3
14 15 3 4
15 16 4 5


>  <atomInfo>  (1) 
1  0.097260  A 
2  -0.229096 NA
3  0.172772  A 
4  0.279984  A 
5  -0.266869 OA
6  -0.290929 N 
7  0.201920  A 
8  -0.369252 N 
9  -0.194624 NA
10 0.168988  A 
11 -0.315021 N 
12 0.025467  C 
13 -0.034795 C 
14 -0.045480 C 
15 0.015905  C 
16 0.271553  C 
17 -0.201084 F 
18 -0.201084 F 
19 0.004942  P 
20 -0.350359 OA
21 -0.806544 OA
22 -0.806544 OA
23 0.104396  H 
24 0.172962  HD
25 0.159281  HD
26 0.159281  HD
27 0.049823  H 
28 0.049823  H 
29 0.028485  H 
30 0.028485  H 
31 0.026951  H 
32 0.026951  H 
33 0.033226  H 
34 0.033226  H 


$$$$
