MOL_0_isomer_0_conf_0
     RDKit          3D

 14 14  0  0  0  0  0  0  0  0999 V2000
    4.2690    0.0134   -0.0653 C   0  0  0  0  0  0  0  0  0  0  0  0
    3.5492    0.0077   -1.2588 C   0  0  0  0  0  0  0  0  0  0  0  0
    2.1523    0.0025   -1.2324 C   0  0  0  0  0  0  0  0  0  0  0  0
    1.4519    0.0028   -0.0146 C   0  0  0  0  0  0  0  0  0  0  0  0
   -0.0651   -0.0029    0.0127 C   0  0  0  0  0  0  0  0  0  0  0  0
   -0.6252   -0.0023    1.1549 O   0  0  0  0  0  0  0  0  0  0  0  0
   -0.6659   -0.0079   -1.1086 O   0  0  0  0  0  1  0  0  0  0  0  0
    2.1956    0.0085    1.1772 C   0  0  0  0  0  0  0  0  0  0  0  0
    3.5926    0.0138    1.1533 C   0  0  0  0  0  0  0  0  0  0  0  0
    5.3540    0.0175   -0.0848 H   0  0  0  0  0  0  0  0  0  0  0  0
    4.0670    0.0074   -2.2127 H   0  0  0  0  0  0  0  0  0  0  0  0
    1.5893   -0.0019   -2.1646 H   0  0  0  0  0  0  0  0  0  0  0  0
    1.6666    0.0088    2.1290 H   0  0  0  0  0  0  0  0  0  0  0  0
    4.1443    0.0181    2.0880 H   0  0  0  0  0  0  0  0  0  0  0  0
 10  1  1  0
  1  2  2  0
  2 11  1  0
  2  3  1  0
  3 12  1  0
  3  4  2  0
  4  5  1  0
  5  6  2  0
  5  7  1  0
  4  8  1  0
  8 13  1  0
  1  9  1  0
  8  9  2  0
  9 14  1  0
M  CHG  1   7  -1
M  END
>  <conformer_energy>  (1) 
37.05

>  <ligand_smiles>  (1) 
O=C([O-])c1ccccc1

>  <ligand_conf_name>  (1) 
MOL_0_isomer_0_conf_0

>  <ligand_molecule_name>  (1) 
MOL_0_isomer_0

$$$$
