MOL_0_isomer_0_conf_0
     RDKit          3D

 58 62  0  0  0  0  0  0  0  0999 V2000
   12.0111   -1.0321   -0.2598 C   0  0  0  0  0  0  0  0  0  0  0  0
   11.0508   -0.4963   -1.1219 C   0  0  0  0  0  0  0  0  0  0  0  0
   10.7086    0.8559   -1.0380 C   0  0  0  0  0  0  0  0  0  0  0  0
    9.6859    1.4228   -1.9279 C   0  0  0  0  0  0  0  0  0  0  0  0
   10.0594    2.1742   -2.9856 C   0  0  0  0  0  0  0  0  0  0  0  0
    9.0425    2.7366   -3.8600 C   0  0  0  0  0  0  0  0  0  0  0  0
    7.7313    2.5315   -3.6373 C   0  0  0  0  0  0  0  0  0  0  0  0
    7.3219    1.7470   -2.5251 C   0  0  0  0  0  0  0  0  0  0  0  0
    6.1335    1.4114   -2.0794 N   0  0  0  0  0  0  0  0  0  0  0  0
    6.4091    0.6559   -0.9778 C   0  0  0  0  0  0  0  0  0  0  0  0
    5.4528    0.1049   -0.2085 N   0  0  0  0  0  0  0  0  0  0  0  0
    4.0509    0.1747   -0.2131 C   0  0  0  0  0  0  0  0  0  0  0  0
    3.3093    0.9534   -1.0988 C   0  0  0  0  0  0  0  0  0  0  0  0
    1.9063    0.9774   -1.0489 C   0  0  0  0  0  0  0  0  0  0  0  0
    1.1835    0.2192   -0.1180 C   0  0  0  0  0  0  0  0  0  0  0  0
   -0.2095    0.2681   -0.0860 N   0  0  0  0  0  0  0  0  0  0  0  0
   -0.9124   -0.0580    1.1628 C   0  0  0  0  0  0  0  0  0  0  0  0
   -2.3293    0.5481    1.1745 C   0  0  0  0  0  0  0  0  0  0  0  0
   -3.0966    0.1429   -0.0811 N   0  0  0  0  0  4  0  0  0  0  0  0
   -4.5092    0.6387   -0.0641 C   0  0  0  0  0  0  0  0  0  0  0  0
   -2.3420    0.5990   -1.3262 C   0  0  0  0  0  0  0  0  0  0  0  0
   -0.9191    0.0059   -1.3511 C   0  0  0  0  0  0  0  0  0  0  0  0
    1.9328   -0.5599    0.7706 C   0  0  0  0  0  0  0  0  0  0  0  0
    3.3349   -0.5855    0.7209 C   0  0  0  0  0  0  0  0  0  0  0  0
    7.7055    0.4921   -0.7195 N   0  0  0  0  0  0  0  0  0  0  0  0
    8.3123    1.2047   -1.7021 N   0  0  0  0  0  0  0  0  0  0  0  0
   11.3507    1.6636   -0.0922 C   0  0  0  0  0  0  0  0  0  0  0  0
   12.3082    1.1225    0.7742 C   0  0  0  0  0  0  0  0  0  0  0  0
   12.6329   -0.2318    0.7006 C   0  0  0  0  0  0  0  0  0  0  0  0
   13.5367   -0.8839    1.4930 O   0  0  0  0  0  0  0  0  0  0  0  0
   13.9970   -0.1825    2.6453 C   0  0  0  0  0  0  0  0  0  0  0  0
   12.2663   -2.0867   -0.3261 H   0  0  0  0  0  0  0  0  0  0  0  0
   10.5692   -1.1456   -1.8472 H   0  0  0  0  0  0  0  0  0  0  0  0
   11.1020    2.3764   -3.2154 H   0  0  0  0  0  0  0  0  0  0  0  0
    9.3755    3.3332   -4.7050 H   0  0  0  0  0  0  0  0  0  0  0  0
    6.9722    2.9518   -4.2873 H   0  0  0  0  0  0  0  0  0  0  0  0
    5.8308   -0.4557    0.5445 H   0  0  0  0  0  0  0  0  0  0  0  0
    3.8031    1.5744   -1.8415 H   0  0  0  0  0  0  0  0  0  0  0  0
    1.3961    1.6387   -1.7435 H   0  0  0  0  0  0  0  0  0  0  0  0
   -0.9803   -1.1475    1.2741 H   0  0  0  0  0  0  0  0  0  0  0  0
   -0.3752    0.3423    2.0319 H   0  0  0  0  0  0  0  0  0  0  0  0
   -2.8977    0.1846    2.0359 H   0  0  0  0  0  0  0  0  0  0  0  0
   -2.2938    1.6432    1.1896 H   0  0  0  0  0  0  0  0  0  0  0  0
   -3.1218   -0.8848   -0.1028 H   0  0  0  0  0  0  0  0  0  0  0  0
   -4.4978    1.7319   -0.0349 H   0  0  0  0  0  0  0  0  0  0  0  0
   -5.0005    0.2285    0.8218 H   0  0  0  0  0  0  0  0  0  0  0  0
   -5.0078    0.2760   -0.9677 H   0  0  0  0  0  0  0  0  0  0  0  0
   -2.9160    0.2615   -2.1959 H   0  0  0  0  0  0  0  0  0  0  0  0
   -2.3150    1.6947   -1.3024 H   0  0  0  0  0  0  0  0  0  0  0  0
   -0.4022    0.4286   -2.2191 H   0  0  0  0  0  0  0  0  0  0  0  0
   -0.9770   -1.0793   -1.5063 H   0  0  0  0  0  0  0  0  0  0  0  0
    1.4518   -1.1903    1.5135 H   0  0  0  0  0  0  0  0  0  0  0  0
    3.8651   -1.2194    1.4290 H   0  0  0  0  0  0  0  0  0  0  0  0
   11.1034    2.7190   -0.0123 H   0  0  0  0  0  0  0  0  0  0  0  0
   12.7797    1.7842    1.4939 H   0  0  0  0  0  0  0  0  0  0  0  0
   14.5709   -0.8834    3.2580 H   0  0  0  0  0  0  0  0  0  0  0  0
   13.1642    0.1831    3.2560 H   0  0  0  0  0  0  0  0  0  0  0  0
   14.6654    0.6353    2.3590 H   0  0  0  0  0  0  0  0  0  0  0  0
 32  1  1  0
  1  2  2  0
  2 33  1  0
  2  3  1  0
  3  4  1  0
  4  5  2  0
  5 34  1  0
  5  6  1  0
  6 35  1  0
  6  7  2  0
  7 36  1  0
  7  8  1  0
  8  9  2  0
  9 10  1  0
 10 11  1  0
 11 37  1  0
 11 12  1  0
 12 13  2  0
 13 38  1  0
 13 14  1  0
 14 39  1  0
 14 15  2  0
 15 16  1  0
 16 17  1  0
 17 40  1  0
 17 41  1  0
 17 18  1  0
 18 42  1  0
 18 43  1  0
 18 19  1  0
 19 44  1  0
 19 20  1  0
 20 45  1  0
 20 46  1  0
 20 47  1  0
 19 21  1  0
 21 48  1  0
 21 49  1  0
 16 22  1  0
 21 22  1  0
 22 50  1  0
 22 51  1  0
 15 23  1  0
 23 52  1  0
 12 24  1  0
 23 24  2  0
 24 53  1  0
 10 25  2  0
  4 26  1  0
  8 26  1  0
 25 26  1  0
  3 27  2  0
 27 54  1  0
 27 28  1  0
 28 55  1  0
  1 29  1  0
 28 29  2  0
 29 30  1  0
 30 31  1  0
 31 56  1  0
 31 57  1  0
 31 58  1  0
M  CHG  1  19   1
M  END
>  <conformer_energy>  (1) 
116.25

>  <ligand_smiles>  (1) 
COc1ccc(-c2cccc3nc(Nc4ccc(N5CC[NH+](C)CC5)cc4)nn23)cc1

>  <ligand_conf_name>  (1) 
MOL_0_isomer_0_conf_0

>  <ligand_molecule_name>  (1) 
MOL_0_isomer_0

$$$$
