1M2Z - prepared_ligand2_conf_0
     RDKit          3D

 57 60  0  0  0  0  0  0  0  0999 V2000
   -0.3073    0.7444   -2.4477 O   0  0  0  0  0  0  0  0  0  0  0  0
   -0.7288   -0.1203   -1.4107 C   0  0  0  0  0  0  0  0  0  0  0  0
   -0.0022    0.0650   -0.0765 C   0  0  0  0  0  0  0  0  0  0  0  0
   -0.6417    0.1523    0.9752 O   0  0  0  0  0  0  0  0  0  0  0  0
    1.5499    0.0597   -0.0963 C   0  0  1  0  0  0  0  0  0  0  0  0
    2.0116    0.8566   -1.1927 O   0  0  0  0  0  0  0  0  0  0  0  0
    2.1621    0.5902    1.2524 C   0  0  2  0  0  0  0  0  0  0  0  0
    2.4232    2.0932    1.3017 C   0  0  0  0  0  0  0  0  0  0  0  0
    3.4595   -0.2240    1.4902 C   0  0  0  0  0  0  0  0  0  0  0  0
    3.6289   -1.0580    0.2246 C   0  0  1  0  0  0  0  0  0  0  0  0
    4.5536   -2.2874    0.2698 C   0  0  2  0  0  0  0  0  0  0  0  0
    5.9497   -1.8914    0.7886 C   0  0  0  0  0  0  0  0  0  0  0  0
    6.9408   -3.0493    0.7394 C   0  0  0  0  0  0  0  0  0  0  0  0
    7.0013   -3.6373   -0.6468 C   0  0  0  0  0  0  0  0  0  0  0  0
    8.1663   -3.6777   -1.3181 C   0  0  0  0  0  0  0  0  0  0  0  0
    8.2545   -4.1915   -2.7003 C   0  0  0  0  0  0  0  0  0  0  0  0
    9.3252   -4.2490   -3.2913 O   0  0  0  0  0  0  0  0  0  0  0  0
    7.0004   -4.6336   -3.3378 C   0  0  0  0  0  0  0  0  0  0  0  0
    5.8377   -4.5966   -2.6732 C   0  0  0  0  0  0  0  0  0  0  0  0
    5.6616   -4.1172   -1.2337 C   0  0  1  0  0  0  0  0  0  0  0  0
    5.2173   -5.3575   -0.4246 C   0  0  0  0  0  0  0  0  0  0  0  0
    4.6441   -2.9053   -1.1649 C   0  0  2  0  0  0  0  0  0  0  0  0
    5.1867   -1.9063   -1.9609 F   0  0  0  0  0  0  0  0  0  0  0  0
    3.2309   -3.1686   -1.7742 C   0  0  1  0  0  0  0  0  0  0  0  0
    2.5906   -4.3586   -1.3244 O   0  0  0  0  0  0  0  0  0  0  0  0
    2.2556   -1.9763   -1.6328 C   0  0  0  0  0  0  0  0  0  0  0  0
    2.1776   -1.3765   -0.2103 C   0  0  2  0  0  0  0  0  0  0  0  0
    1.4439   -2.3457    0.7540 C   0  0  0  0  0  0  0  0  0  0  0  0
    0.6480    0.5847   -2.5872 H   0  0  0  0  0  0  0  0  0  0  0  0
   -1.7935    0.0716   -1.2423 H   0  0  0  0  0  0  0  0  0  0  0  0
   -0.6319   -1.1578   -1.7374 H   0  0  0  0  0  0  0  0  0  0  0  0
    1.7095    1.7743   -1.0487 H   0  0  0  0  0  0  0  0  0  0  0  0
    1.4911    0.3620    2.0901 H   0  0  0  0  0  0  0  0  0  0  0  0
    3.1814    2.3990    0.5734 H   0  0  0  0  0  0  0  0  0  0  0  0
    2.7853    2.3842    2.2938 H   0  0  0  0  0  0  0  0  0  0  0  0
    1.5041    2.6541    1.1046 H   0  0  0  0  0  0  0  0  0  0  0  0
    3.3420   -0.8678    2.3699 H   0  0  0  0  0  0  0  0  0  0  0  0
    4.3294    0.4172    1.6682 H   0  0  0  0  0  0  0  0  0  0  0  0
    4.0714   -0.3750   -0.5187 H   0  0  0  0  0  0  0  0  0  0  0  0
    4.1450   -3.0272    0.9650 H   0  0  0  0  0  0  0  0  0  0  0  0
    6.3427   -1.0529    0.1983 H   0  0  0  0  0  0  0  0  0  0  0  0
    5.8780   -1.5394    1.8245 H   0  0  0  0  0  0  0  0  0  0  0  0
    6.6497   -3.8240    1.4581 H   0  0  0  0  0  0  0  0  0  0  0  0
    7.9245   -2.6871    1.0623 H   0  0  0  0  0  0  0  0  0  0  0  0
    9.1009   -3.3236   -0.8981 H   0  0  0  0  0  0  0  0  0  0  0  0
    7.0785   -4.9927   -4.3567 H   0  0  0  0  0  0  0  0  0  0  0  0
    4.9501   -4.9572   -3.1902 H   0  0  0  0  0  0  0  0  0  0  0  0
    6.0472   -6.0658   -0.2994 H   0  0  0  0  0  0  0  0  0  0  0  0
    4.4177   -5.9163   -0.9223 H   0  0  0  0  0  0  0  0  0  0  0  0
    4.8633   -5.1015    0.5784 H   0  0  0  0  0  0  0  0  0  0  0  0
    3.3571   -3.3055   -2.8548 H   0  0  0  0  0  0  0  0  0  0  0  0
    2.6682   -4.4367   -0.3618 H   0  0  0  0  0  0  0  0  0  0  0  0
    1.2588   -2.2921   -1.9583 H   0  0  0  0  0  0  0  0  0  0  0  0
    2.5864   -1.2050   -2.3393 H   0  0  0  0  0  0  0  0  0  0  0  0
    1.1972   -1.8810    1.7137 H   0  0  0  0  0  0  0  0  0  0  0  0
    0.4998   -2.6867    0.3145 H   0  0  0  0  0  0  0  0  0  0  0  0
    2.0261   -3.2317    1.0040 H   0  0  0  0  0  0  0  0  0  0  0  0
 29  1  1  0
  1  2  1  0
  2 30  1  0
  2 31  1  0
  2  3  1  0
  3  4  2  0
  3  5  1  0
  5  6  1  6
  6 32  1  0
  5  7  1  0
  7 33  1  1
  7  8  1  0
  8 34  1  0
  8 35  1  0
  8 36  1  0
  7  9  1  0
  9 37  1  0
  9 38  1  0
  9 10  1  0
 10 39  1  6
 10 11  1  0
 11 40  1  1
 11 12  1  0
 12 41  1  0
 12 42  1  0
 12 13  1  0
 13 43  1  0
 13 44  1  0
 13 14  1  0
 14 15  2  0
 15 45  1  0
 15 16  1  0
 16 17  2  0
 16 18  1  0
 18 46  1  0
 18 19  2  0
 19 47  1  0
 14 20  1  0
 19 20  1  0
 20 21  1  1
 21 48  1  0
 21 49  1  0
 21 50  1  0
 11 22  1  0
 20 22  1  0
 22 23  1  6
 22 24  1  0
 24 51  1  6
 24 25  1  0
 25 52  1  0
 24 26  1  0
 26 53  1  0
 26 54  1  0
  5 27  1  0
 10 27  1  0
 26 27  1  0
 27 28  1  1
 28 55  1  0
 28 56  1  0
 28 57  1  0
M  END
>  <conformer_energy>  (1) 
182.22

>  <ligand_smiles>  (1) 
C[C@@H]1C[C@H]2[C@@H]3CCC4=CC(=O)C=C[C@]4(C)[C@@]3(F)[C@@H](O)C[C@]2(C)[C@@]1(O)C(=O)CO

>  <ligand_conf_name>  (1) 
1M2Z - prepared_ligand2_conf_0

>  <ligand_molecule_name>  (1) 
1M2Z - prepared_ligand2

>  <fragInfo>  (1) 
5 6 7 8 9 10 11 12 13 14 15 16 17 18 19 20 21 22 23 24 25 26 27 28 32 33 34 35 36 37 38 39 40 41 42 43 44 45 46 47 48 49 50 51 52 53 54 55 56 57
1 2 29 30 31
3 4


>  <torsionInfo>  (1) 
3 5 2 0
2 3 1 2


>  <atomInfo>  (1) 
1  -0.388464 OA
2  0.104690  C 
3  0.189906  C 
4  -0.293793 OA
5  0.133272  C 
6  -0.381105 OA
7  -0.007125 C 
8  -0.059274 C 
9  -0.043609 C 
10 -0.026278 C 
11 0.000486  C 
12 -0.043160 C 
13 -0.030201 C 
14 -0.053312 C 
15 -0.014451 C 
16 0.177841  C 
17 -0.289978 OA
18 -0.017643 C 
19 -0.067403 C 
20 0.044155  C 
21 -0.049088 C 
22 0.151778  C 
23 -0.239384 F 
24 0.090108  C 
25 -0.389712 OA
26 -0.014863 C 
27 0.009599  C 
28 -0.056040 C 
29 0.210678  HD
30 0.064810  H 
31 0.064810  H 
32 0.211546  HD
33 0.033445  H 
34 0.023439  H 
35 0.023439  H 
36 0.023439  H 
37 0.027366  H 
38 0.027366  H 
39 0.031369  H 
40 0.034016  H 
41 0.027393  H 
42 0.027393  H 
43 0.031310  H 
44 0.031310  H 
45 0.066377  H 
46 0.066083  H 
47 0.058768  H 
48 0.024372  H 
49 0.024372  H 
50 0.024372  H 
51 0.063524  H 
52 0.210610  HD
53 0.030117  H 
54 0.030117  H 
55 0.023735  H 
56 0.023735  H 
57 0.023735  H 


$$$$
