MOL_0_isomer_0_conf_0
     RDKit          3D

 34 35  0  0  0  0  0  0  0  0999 V2000
    3.6481    0.9507   -0.6807 C   0  0  0  0  0  0  0  0  0  0  0  0
    4.3137   -0.0879   -0.0336 C   0  0  0  0  0  0  0  0  0  0  0  0
    3.5914   -1.0866    0.6231 C   0  0  0  0  0  0  0  0  0  0  0  0
    4.2923   -2.1950    1.3004 C   0  0  0  0  0  0  0  0  0  0  0  0
    3.9742   -3.4762    1.0242 C   0  0  0  0  0  0  0  0  0  0  0  0
    4.6485   -4.5842    1.6606 C   0  0  0  0  0  0  0  0  0  0  0  0
    5.6255   -4.3509    2.5425 C   0  0  0  0  0  0  0  0  0  0  0  0
    5.9859   -3.0651    2.8423 N   0  0  0  0  0  0  0  0  0  0  0  0
    5.4021   -1.9453    2.2907 C   0  0  0  0  0  0  0  0  0  0  0  0
    5.7812   -0.8208    2.6036 O   0  0  0  0  0  0  0  0  0  0  0  0
    2.1863   -1.0127    0.6240 C   0  0  0  0  0  0  0  0  0  0  0  0
    1.4863    0.0278   -0.0249 C   0  0  0  0  0  0  0  0  0  0  0  0
   -0.0518    0.0616    0.0093 C   0  0  0  0  0  0  0  0  0  0  0  0
   -0.5360    0.1613    1.4719 C   0  0  0  0  0  0  0  0  0  0  0  0
   -0.6678    1.2533   -0.7583 C   0  0  0  0  0  0  0  0  0  0  0  0
   -0.6146   -1.2285   -0.6259 C   0  0  0  0  0  0  0  0  0  0  0  0
    2.2517    1.0059   -0.6783 C   0  0  0  0  0  0  0  0  0  0  0  0
    4.2198    1.7257   -1.1852 H   0  0  0  0  0  0  0  0  0  0  0  0
    5.4015   -0.1055   -0.0418 H   0  0  0  0  0  0  0  0  0  0  0  0
    3.2027   -3.7247    0.3010 H   0  0  0  0  0  0  0  0  0  0  0  0
    4.3468   -5.5946    1.4054 H   0  0  0  0  0  0  0  0  0  0  0  0
    6.1649   -5.1451    3.0478 H   0  0  0  0  0  0  0  0  0  0  0  0
    6.7263   -2.8828    3.5084 H   0  0  0  0  0  0  0  0  0  0  0  0
    1.6271   -1.7805    1.1558 H   0  0  0  0  0  0  0  0  0  0  0  0
   -0.2358   -0.7072    2.0683 H   0  0  0  0  0  0  0  0  0  0  0  0
   -1.6294    0.2224    1.5230 H   0  0  0  0  0  0  0  0  0  0  0  0
   -0.1288    1.0535    1.9622 H   0  0  0  0  0  0  0  0  0  0  0  0
   -0.3928    1.2352   -1.8194 H   0  0  0  0  0  0  0  0  0  0  0  0
   -0.3466    2.2136   -0.3382 H   0  0  0  0  0  0  0  0  0  0  0  0
   -1.7632    1.2313   -0.7090 H   0  0  0  0  0  0  0  0  0  0  0  0
   -0.2625   -1.3462   -1.6576 H   0  0  0  0  0  0  0  0  0  0  0  0
   -1.7106   -1.2129   -0.6472 H   0  0  0  0  0  0  0  0  0  0  0  0
   -0.3187   -2.1268   -0.0731 H   0  0  0  0  0  0  0  0  0  0  0  0
    1.7861    1.8400   -1.1957 H   0  0  0  0  0  0  0  0  0  0  0  0
 18  1  1  0
  1  2  2  0
  2 19  1  0
  2  3  1  0
  3  4  1  0
  4  5  2  0
  5 20  1  0
  5  6  1  0
  6 21  1  0
  6  7  2  0
  7 22  1  0
  7  8  1  0
  8 23  1  0
  4  9  1  0
  8  9  1  0
  9 10  2  0
  3 11  2  0
 11 24  1  0
 11 12  1  0
 12 13  1  0
 13 14  1  0
 14 25  1  0
 14 26  1  0
 14 27  1  0
 13 15  1  0
 15 28  1  0
 15 29  1  0
 15 30  1  0
 13 16  1  0
 16 31  1  0
 16 32  1  0
 16 33  1  0
  1 17  1  0
 12 17  2  0
 17 34  1  0
M  END
>  <conformer_energy>  (1) 
52.28

>  <ligand_smiles>  (1) 
CC(C)(C)c1cccc(-c2ccc[nH]c2=O)c1

>  <ligand_conf_name>  (1) 
MOL_0_isomer_0_conf_0

>  <ligand_molecule_name>  (1) 
MOL_0_isomer_0

$$$$
