1T9B - prepared_ligand7_conf_0
     RDKit          3D

 34 35  0  0  0  0  0  0  0  0999 V2000
    2.8122    4.2931    2.0151 C   0  0  0  0  0  0  0  0  0  0  0  0
    1.9502    4.7428    1.0182 C   0  0  0  0  0  0  0  0  0  0  0  0
    2.2151    4.4402   -0.3184 C   0  0  0  0  0  0  0  0  0  0  0  0
    3.3439    3.6769   -0.6628 C   0  0  0  0  0  0  0  0  0  0  0  0
    3.6144    3.3122   -2.4319 S   0  0  0  0  0  6  0  0  0  0  0  0
    5.0324    3.6397   -2.5858 O   0  0  0  0  0  0  0  0  0  0  0  0
    2.7201    4.2797   -3.0792 O   0  0  0  0  0  0  0  0  0  0  0  0
    3.1376    1.8052   -2.5841 N   0  0  0  0  0  0  0  0  0  0  0  0
    4.0241    0.9292   -3.0326 C   0  0  0  0  0  0  0  0  0  0  0  0
    4.6639    0.9829   -4.0877 O   0  0  0  0  0  0  0  0  0  0  0  0
    4.1822   -0.2181   -2.2822 N   0  0  0  0  0  0  0  0  0  0  0  0
    3.6255   -0.6151   -1.0697 C   0  0  0  0  0  0  0  0  0  0  0  0
    2.7316    0.1234   -0.4268 N   0  0  0  0  0  0  0  0  0  0  0  0
    2.3411   -0.3456    0.7450 C   0  0  0  0  0  0  0  0  0  0  0  0
    1.4110    0.4350    1.3970 O   0  0  0  0  0  0  0  0  0  0  0  0
    1.3587    0.1834    2.7957 C   0  0  0  0  0  0  0  0  0  0  0  0
    2.7321   -1.4920    1.2967 N   0  0  0  0  0  0  0  0  0  0  0  0
    3.6030   -2.1769    0.5579 C   0  0  0  0  0  0  0  0  0  0  0  0
    4.1263   -3.4592    1.1243 C   0  0  0  0  0  0  0  0  0  0  0  0
    4.0813   -1.7876   -0.6236 N   0  0  0  0  0  0  0  0  0  0  0  0
    4.2118    3.2152    0.3345 C   0  0  0  0  0  0  0  0  0  0  0  0
    5.6162    2.2447    0.0677 Cl  0  0  0  0  0  0  0  0  0  0  0  0
    3.9351    3.5339    1.6738 C   0  0  0  0  0  0  0  0  0  0  0  0
    2.6125    4.5310    3.0564 H   0  0  0  0  0  0  0  0  0  0  0  0
    1.0733    5.3335    1.2685 H   0  0  0  0  0  0  0  0  0  0  0  0
    1.5360    4.7966   -1.0917 H   0  0  0  0  0  0  0  0  0  0  0  0
    4.8586   -0.8609   -2.6627 H   0  0  0  0  0  0  0  0  0  0  0  0
    0.6795    0.9187    3.2408 H   0  0  0  0  0  0  0  0  0  0  0  0
    2.3398    0.3164    3.2688 H   0  0  0  0  0  0  0  0  0  0  0  0
    0.9522   -0.8143    3.0087 H   0  0  0  0  0  0  0  0  0  0  0  0
    3.4187   -3.8754    1.8548 H   0  0  0  0  0  0  0  0  0  0  0  0
    5.0860   -3.2728    1.6269 H   0  0  0  0  0  0  0  0  0  0  0  0
    4.2811   -4.1996    0.3274 H   0  0  0  0  0  0  0  0  0  0  0  0
    4.6017    3.1923    2.4609 H   0  0  0  0  0  0  0  0  0  0  0  0
 24  1  1  0
  1  2  2  0
  2 25  1  0
  2  3  1  0
  3 26  1  0
  3  4  2  0
  4  5  1  0
  5  6  2  0
  5  7  2  0
  5  8  1  0
  8  9  1  0
  9 10  2  0
  9 11  1  0
 11 27  1  0
 11 12  1  0
 12 13  2  0
 13 14  1  0
 14 15  1  0
 15 16  1  0
 16 28  1  0
 16 29  1  0
 16 30  1  0
 14 17  2  0
 17 18  1  0
 18 19  1  0
 19 31  1  0
 19 32  1  0
 19 33  1  0
 12 20  1  0
 18 20  2  0
  4 21  1  0
 21 22  1  0
  1 23  1  0
 21 23  2  0
 23 34  1  0
M  CHG  1   8  -1
M  END
>  <conformer_energy>  (1) 
-131.38

>  <ligand_smiles>  (1) 
COc1nc(C)nc(NC(=O)[N-]S(=O)(=O)c2ccccc2Cl)n1

>  <ligand_conf_name>  (1) 
1T9B - prepared_ligand7_conf_0

>  <ligand_molecule_name>  (1) 
1T9B - prepared_ligand7

>  <fragInfo>  (1) 
1 2 3 4 21 22 23 24 25 26 34
5 6 7
8
9 10 11 27
12 13 14 17 18 19 20 31 32 33
15 16 28 29 30


>  <torsionInfo>  (1) 
4 5 0 1
5 8 1 2
8 9 2 3
11 12 3 4
14 15 4 5


>  <atomInfo>  (1) 
1  -0.060701 A 
2  -0.060862 A 
3  -0.041862 A 
4  0.088007  A 
5  0.205753  S 
6  -0.220998 OA
7  -0.220998 OA
8  -0.316371 NA
9  0.170544  C 
10 -0.297825 OA
11 -0.393154 N 
12 0.150444  A 
13 -0.179283 NA
14 0.319096  A 
15 -0.466697 OA
16 0.080861  C 
17 -0.180281 NA
18 0.132593  A 
19 -0.003998 C 
20 -0.217347 NA
21 0.059339  A 
22 -0.082918 Cl
23 -0.042189 A 
24 0.062323  H 
25 0.062314  H 
26 0.063696  H 
27 0.031938  HD
28 0.066987  H 
29 0.066987  H 
30 0.066987  H 
31 0.031244  H 
32 0.031244  H 
33 0.031244  H 
34 0.063885  H 


$$$$
