MOL_0_isomer_0_conf_0
     RDKit          3D

 55 58  0  0  0  0  0  0  0  0999 V2000
    7.0849    7.0580   -3.1810 O   0  0  0  0  0  0  0  0  0  0  0  0
    6.5757    5.7412   -2.8415 C   0  0  1  0  0  0  0  0  0  0  0  0
    6.5283    5.6017   -1.3034 C   0  0  1  0  0  0  0  0  0  0  0  0
    7.4275    6.5104   -0.6743 O   0  0  0  0  0  0  0  0  0  0  0  0
    5.1249    5.9956   -0.9904 C   0  0  0  0  0  0  0  0  0  0  0  0
    4.3458    5.9687   -2.0827 C   0  0  0  0  0  0  0  0  0  0  0  0
    5.1060    5.5797   -3.3201 C   0  0  2  0  0  0  0  0  0  0  0  0
    4.8006    4.2128   -3.7268 N   0  0  0  0  0  0  0  0  0  0  0  0
    3.6552    4.1671   -4.6303 C   0  0  0  0  0  0  0  0  0  0  0  0
    3.3528    2.7313   -4.8942 C   0  0  0  0  0  0  0  0  0  0  0  0
    2.4836    1.9294   -4.1695 C   0  0  0  0  0  0  0  0  0  0  0  0
    2.4980    0.6562   -4.6950 N   0  0  0  0  0  0  0  0  0  0  0  0
    1.7276   -0.4963   -4.2283 C   0  0  2  0  0  0  0  0  0  0  0  0
    0.5228   -0.0348   -3.5769 O   0  0  0  0  0  0  0  0  0  0  0  0
    0.5781   -0.4446   -2.1791 C   0  0  2  0  0  0  0  0  0  0  0  0
    0.0443    0.6985   -1.3167 C   0  0  0  0  0  0  0  0  0  0  0  0
   -0.3220    0.2702   -0.0271 O   0  0  0  0  0  0  0  0  0  0  0  0
    0.7025    0.6090    1.1992 P   0  0  0  0  0  5  0  0  0  0  0  0
   -0.1117    0.2973    2.4411 O   0  0  0  0  0  0  0  0  0  0  0  0
    1.0589    2.0709    0.9999 O   0  0  0  0  0  1  0  0  0  0  0  0
    1.8512   -0.3547    0.9361 O   0  0  0  0  0  1  0  0  0  0  0  0
    2.0329   -0.8315   -1.8991 C   0  0  1  0  0  0  0  0  0  0  0  0
    2.1813   -1.8824   -0.9424 O   0  0  0  0  0  0  0  0  0  0  0  0
    2.4949   -1.3652   -3.2427 C   0  0  1  0  0  0  0  0  0  0  0  0
    2.1106   -2.7553   -3.3608 O   0  0  0  0  0  0  0  0  0  0  0  0
    3.3840    0.6259   -5.7410 C   0  0  0  0  0  0  0  0  0  0  0  0
    3.6832   -0.4819   -6.4623 N   0  0  0  0  0  0  0  0  0  0  0  0
    4.5656   -0.2814   -7.3995 C   0  0  0  0  0  0  0  0  0  0  0  0
    4.9611   -1.3158   -8.1725 N   0  0  0  0  0  0  0  0  0  0  0  0
    5.1378    0.9430   -7.6638 N   0  0  0  0  0  0  0  0  0  0  0  0
    4.8443    2.1035   -6.9715 C   0  0  0  0  0  0  0  0  0  0  0  0
    5.3326    3.1826   -7.2924 O   0  0  0  0  0  0  0  0  0  0  0  0
    3.9004    1.8952   -5.9024 C   0  0  0  0  0  0  0  0  0  0  0  0
    6.4622    7.6879   -2.7654 H   0  0  0  0  0  0  0  0  0  0  0  0
    7.2601    5.0195   -3.2986 H   0  0  0  0  0  0  0  0  0  0  0  0
    6.7274    4.5794   -0.9676 H   0  0  0  0  0  0  0  0  0  0  0  0
    8.0091    6.8337   -1.3891 H   0  0  0  0  0  0  0  0  0  0  0  0
    4.7710    6.1825    0.0154 H   0  0  0  0  0  0  0  0  0  0  0  0
    3.2781    6.1429   -2.0639 H   0  0  0  0  0  0  0  0  0  0  0  0
    4.9137    6.2956   -4.1280 H   0  0  0  0  0  0  0  0  0  0  0  0
    4.5715    3.6486   -2.9056 H   0  0  0  0  0  0  0  0  0  0  0  0
    3.8840    4.6804   -5.5669 H   0  0  0  0  0  0  0  0  0  0  0  0
    2.7776    4.6529   -4.1901 H   0  0  0  0  0  0  0  0  0  0  0  0
    1.8651    2.1673   -3.3118 H   0  0  0  0  0  0  0  0  0  0  0  0
    1.4141   -1.0562   -5.1173 H   0  0  0  0  0  0  0  0  0  0  0  0
   -0.0745   -1.3204   -2.0649 H   0  0  0  0  0  0  0  0  0  0  0  0
   -0.8570    1.1079   -1.7848 H   0  0  0  0  0  0  0  0  0  0  0  0
    0.7577    1.5269   -1.2913 H   0  0  0  0  0  0  0  0  0  0  0  0
    2.6430    0.0340   -1.6139 H   0  0  0  0  0  0  0  0  0  0  0  0
    2.0327   -1.3954   -0.0656 H   0  0  0  0  0  0  0  0  0  0  0  0
    3.5825   -1.3349   -3.3596 H   0  0  0  0  0  0  0  0  0  0  0  0
    2.0756   -3.0409   -2.4160 H   0  0  0  0  0  0  0  0  0  0  0  0
    5.6677   -1.2507   -8.8846 H   0  0  0  0  0  0  0  0  0  0  0  0
    4.5566   -2.2207   -7.9509 H   0  0  0  0  0  0  0  0  0  0  0  0
    5.8004    1.0464   -8.4098 H   0  0  0  0  0  0  0  0  0  0  0  0
 34  1  1  0
  1  2  1  0
  2 35  1  6
  2  3  1  0
  3 36  1  6
  3  4  1  0
  4 37  1  0
  3  5  1  0
  5 38  1  0
  5  6  2  0
  6 39  1  0
  2  7  1  0
  6  7  1  0
  7 40  1  6
  7  8  1  0
  8 41  1  0
  8  9  1  0
  9 42  1  0
  9 43  1  0
  9 10  1  0
 10 11  2  0
 11 44  1  0
 11 12  1  0
 12 13  1  0
 13 45  1  6
 13 14  1  0
 14 15  1  0
 15 46  1  6
 15 16  1  0
 16 47  1  0
 16 48  1  0
 16 17  1  0
 17 18  1  0
 18 19  2  0
 18 20  1  0
 18 21  1  0
 15 22  1  0
 22 49  1  1
 22 23  1  0
 23 50  1  0
 13 24  1  0
 22 24  1  0
 24 51  1  6
 24 25  1  0
 25 52  1  0
 12 26  1  0
 26 27  1  0
 27 28  2  0
 28 29  1  0
 29 53  1  0
 29 54  1  0
 28 30  1  0
 30 55  1  0
 30 31  1  0
 31 32  2  0
 10 33  1  0
 26 33  2  0
 31 33  1  0
M  CHG  2  20  -1  21  -1
M  END
>  <conformer_energy>  (1) 
-72.32

>  <ligand_smiles>  (1) 
Nc1nc2c(c(CN[C@H]3C=C[C@H](O)[C@@H]3O)cn2[C@@H]2O[C@H](COP(=O)([O-])[O-])[C@@H](O)[C@H]2O)c(=O)[nH]1

>  <ligand_conf_name>  (1) 
MOL_0_isomer_0_conf_0

>  <ligand_molecule_name>  (1) 
MOL_0_isomer_0

$$$$
