MOL_0_isomer_0_conf_0
     RDKit          3D

 57 61  0  0  0  0  0  0  0  0999 V2000
    1.3080    3.5729    2.9672 C   0  0  0  0  0  0  0  0  0  0  0  0
    1.5671    2.4015    3.6837 C   0  0  0  0  0  0  0  0  0  0  0  0
    2.8963    2.0229    3.9366 C   0  0  0  0  0  0  0  0  0  0  0  0
    3.2064    0.5231    4.9087 S   0  0  0  0  0  6  0  0  0  0  0  0
    1.9598    0.4135    5.6778 O   0  0  0  0  0  0  0  0  0  0  0  0
    4.3698    0.8840    5.7222 O   0  0  0  0  0  0  0  0  0  0  0  0
    3.4174   -0.6923    3.8886 N   0  0  0  0  0  2  0  0  0  0  0  0
    4.2295   -0.5586    2.8114 C   0  0  0  0  0  0  0  0  0  0  0  0
    5.6493   -0.5096    2.9472 C   0  0  0  0  0  0  0  0  0  0  0  0
    6.5096   -0.3677    1.8416 C   0  0  0  0  0  0  0  0  0  0  0  0
    5.9290   -0.2865    0.5981 C   0  0  0  0  0  0  0  0  0  0  0  0
    4.5685   -0.3445    0.4895 C   0  0  0  0  0  0  0  0  0  0  0  0
    4.1805   -0.2332   -0.8125 C   0  0  0  0  0  0  0  0  0  0  0  0
    2.8464   -0.2366   -1.1535 C   0  0  0  0  0  0  0  0  0  0  0  0
    1.9452   -0.3581   -0.0953 C   0  0  0  0  0  0  0  0  0  0  0  0
    0.5531   -0.3076   -0.3133 N   0  0  0  0  0  0  0  0  0  0  0  0
   -0.1928   -0.8016    0.8662 C   0  0  0  0  0  0  0  0  0  0  0  0
   -1.7005   -0.8372    0.5993 C   0  0  0  0  0  0  0  0  0  0  0  0
   -2.1760    0.5324    0.1222 N   0  0  0  0  0  4  0  0  0  0  0  0
   -3.6574    0.5968   -0.0363 C   0  0  0  0  0  0  0  0  0  0  0  0
   -1.4257    0.9425   -1.1390 C   0  0  0  0  0  0  0  0  0  0  0  0
    0.0972    0.9599   -0.8929 C   0  0  0  0  0  0  0  0  0  0  0  0
    2.3533   -0.4894    1.1984 N   0  0  0  0  0  0  0  0  0  0  0  0
    3.6691   -0.4795    1.5227 C   0  0  0  0  0  0  0  0  0  0  0  0
    5.4122   -0.1048   -1.6149 C   0  0  0  0  0  0  0  0  0  0  0  0
    5.4369    0.0060   -2.8269 O   0  0  0  0  0  0  0  0  0  0  0  0
    6.4589   -0.1327   -0.6937 N   0  0  0  0  0  0  0  0  0  0  0  0
    7.8620   -0.0362   -1.0071 C   0  0  0  0  0  0  0  0  0  0  0  0
    8.5448   -1.3954   -1.0152 C   0  0  0  0  0  0  0  0  0  0  0  0
    3.9504    2.8178    3.4911 C   0  0  0  0  0  0  0  0  0  0  0  0
    5.2358    2.5015    3.7027 F   0  0  0  0  0  0  0  0  0  0  0  0
    3.6919    3.9915    2.7805 C   0  0  0  0  0  0  0  0  0  0  0  0
    2.3722    4.3554    2.5222 C   0  0  0  0  0  0  0  0  0  0  0  0
    2.1204    5.4840    1.8353 F   0  0  0  0  0  0  0  0  0  0  0  0
    0.2854    3.8951    2.7721 H   0  0  0  0  0  0  0  0  0  0  0  0
    0.7482    1.7859    4.0712 H   0  0  0  0  0  0  0  0  0  0  0  0
    6.0828   -0.5583    3.9491 H   0  0  0  0  0  0  0  0  0  0  0  0
    7.5817   -0.3153    1.9917 H   0  0  0  0  0  0  0  0  0  0  0  0
    2.5362   -0.1554   -2.1874 H   0  0  0  0  0  0  0  0  0  0  0  0
   -0.0229   -0.1446    1.7291 H   0  0  0  0  0  0  0  0  0  0  0  0
    0.1293   -1.8145    1.1316 H   0  0  0  0  0  0  0  0  0  0  0  0
   -2.2507   -1.0687    1.5185 H   0  0  0  0  0  0  0  0  0  0  0  0
   -1.9544   -1.5641   -0.1806 H   0  0  0  0  0  0  0  0  0  0  0  0
   -1.9048    1.1957    0.8613 H   0  0  0  0  0  0  0  0  0  0  0  0
   -3.9616   -0.1225   -0.8021 H   0  0  0  0  0  0  0  0  0  0  0  0
   -4.1160    0.3623    0.9302 H   0  0  0  0  0  0  0  0  0  0  0  0
   -3.9215    1.6115   -0.3370 H   0  0  0  0  0  0  0  0  0  0  0  0
   -1.7780    1.9416   -1.4151 H   0  0  0  0  0  0  0  0  0  0  0  0
   -1.6981    0.2263   -1.9231 H   0  0  0  0  0  0  0  0  0  0  0  0
    0.5937    1.1691   -1.8475 H   0  0  0  0  0  0  0  0  0  0  0  0
    0.3344    1.7790   -0.2049 H   0  0  0  0  0  0  0  0  0  0  0  0
    8.3454    0.6365   -0.2882 H   0  0  0  0  0  0  0  0  0  0  0  0
    7.9603    0.4178   -2.0015 H   0  0  0  0  0  0  0  0  0  0  0  0
    9.6039   -1.2787   -1.2673 H   0  0  0  0  0  0  0  0  0  0  0  0
    8.0853   -2.0661   -1.7533 H   0  0  0  0  0  0  0  0  0  0  0  0
    8.4804   -1.8820   -0.0333 H   0  0  0  0  0  0  0  0  0  0  0  0
    4.5206    4.6160    2.4551 H   0  0  0  0  0  0  0  0  0  0  0  0
 35  1  1  0
  1  2  2  0
  2 36  1  0
  2  3  1  0
  3  4  1  0
  4  5  2  0
  4  6  2  0
  4  7  1  0
  7  8  1  0
  8  9  2  0
  9 37  1  0
  9 10  1  0
 10 38  1  0
 10 11  2  0
 11 12  1  0
 12 13  1  0
 13 14  2  0
 14 39  1  0
 14 15  1  0
 15 16  1  0
 16 17  1  0
 17 40  1  0
 17 41  1  0
 17 18  1  0
 18 42  1  0
 18 43  1  0
 18 19  1  0
 19 44  1  0
 19 20  1  0
 20 45  1  0
 20 46  1  0
 20 47  1  0
 19 21  1  0
 21 48  1  0
 21 49  1  0
 16 22  1  0
 21 22  1  0
 22 50  1  0
 22 51  1  0
 15 23  2  0
  8 24  1  0
 12 24  2  0
 23 24  1  0
 13 25  1  0
 25 26  2  0
 11 27  1  0
 25 27  1  0
 27 28  1  0
 28 52  1  0
 28 53  1  0
 28 29  1  0
 29 54  1  0
 29 55  1  0
 29 56  1  0
  3 30  2  0
 30 31  1  0
 30 32  1  0
 32 57  1  0
  1 33  1  0
 32 33  2  0
 33 34  1  0
M  CHG  2   7  -1  19   1
M  END
>  <conformer_energy>  (1) 
84.35

>  <ligand_smiles>  (1) 
CCN1C(=O)c2cc(N3CC[NH+](C)CC3)nc3c([N-]S(=O)(=O)c4ccc(F)cc4F)ccc1c23

>  <ligand_conf_name>  (1) 
MOL_0_isomer_0_conf_0

>  <ligand_molecule_name>  (1) 
MOL_0_isomer_0

$$$$
