MOL_0_isomer_0_conf_0
     RDKit          3D

 46 49  0  0  0  0  0  0  0  0999 V2000
    0.4357   -5.3078   -0.4128 C   0  0  0  0  0  0  0  0  0  0  0  0
   -0.2038   -4.2293   -1.0045 C   0  0  0  0  0  0  0  0  0  0  0  0
   -1.2859   -4.5522   -1.7734 O   0  0  0  0  0  0  0  0  0  0  0  0
   -2.0387   -3.4737   -2.3147 C   0  0  0  0  0  0  0  0  0  0  0  0
    0.2950   -2.9493   -0.7776 C   0  0  0  0  0  0  0  0  0  0  0  0
    1.4262   -2.7122    0.0465 C   0  0  0  0  0  0  0  0  0  0  0  0
    1.9474   -1.3929    0.2911 C   0  0  0  0  0  0  0  0  0  0  0  0
    1.3099   -0.1621   -0.3285 C   0  0  0  0  0  0  0  0  0  0  0  0
   -0.0495    0.1159    0.1640 N   0  0  0  0  0  0  0  0  0  0  0  0
   -0.0640    0.4869    1.5963 C   0  0  0  0  0  0  0  0  0  0  0  0
   -1.4849    0.8388    2.0663 C   0  0  0  0  0  0  0  0  0  0  0  0
   -2.0353    1.9119    1.2905 O   0  0  0  0  0  0  0  0  0  0  0  0
   -2.0723    1.5454   -0.0940 C   0  0  0  0  0  0  0  0  0  0  0  0
   -0.6660    1.2114   -0.6148 C   0  0  0  0  0  0  0  0  0  0  0  0
    3.0838   -1.3084    1.1316 C   0  0  0  0  0  0  0  0  0  0  0  0
    3.9599   -0.3118    1.6682 C   0  0  0  0  0  0  0  0  0  0  0  0
    3.9445    1.1592    1.4687 C   0  0  0  0  0  0  0  0  0  0  0  0
    4.9134   -0.8418    2.4504 N   0  0  0  0  0  0  0  0  0  0  0  0
    4.6556   -2.1600    2.4134 N   0  0  0  0  0  0  0  0  0  0  0  0
    3.5831   -2.4903    1.6438 C   0  0  0  0  0  0  0  0  0  0  0  0
    3.1328   -3.7334    1.4461 N   0  0  0  0  0  0  0  0  0  0  0  0
    2.0622   -3.8324    0.6499 C   0  0  0  0  0  0  0  0  0  0  0  0
    1.5568   -5.1149    0.4081 C   0  0  0  0  0  0  0  0  0  0  0  0
    2.2137   -6.3196    1.0332 C   0  0  0  0  0  0  0  0  0  0  0  0
    0.0524   -6.3105   -0.5899 H   0  0  0  0  0  0  0  0  0  0  0  0
   -2.8904   -3.8986   -2.8547 H   0  0  0  0  0  0  0  0  0  0  0  0
   -1.4430   -2.8997   -3.0321 H   0  0  0  0  0  0  0  0  0  0  0  0
   -2.4347   -2.8291   -1.5228 H   0  0  0  0  0  0  0  0  0  0  0  0
   -0.2009   -2.1034   -1.2398 H   0  0  0  0  0  0  0  0  0  0  0  0
    1.9457    0.7168   -0.1911 H   0  0  0  0  0  0  0  0  0  0  0  0
    1.2871   -0.3266   -1.4145 H   0  0  0  0  0  0  0  0  0  0  0  0
    0.5860    1.3549    1.7628 H   0  0  0  0  0  0  0  0  0  0  0  0
    0.3036   -0.3393    2.2140 H   0  0  0  0  0  0  0  0  0  0  0  0
   -1.4587    1.1664    3.1105 H   0  0  0  0  0  0  0  0  0  0  0  0
   -2.1508   -0.0307    2.0065 H   0  0  0  0  0  0  0  0  0  0  0  0
   -2.7577    0.6997   -0.2277 H   0  0  0  0  0  0  0  0  0  0  0  0
   -2.4808    2.3952   -0.6503 H   0  0  0  0  0  0  0  0  0  0  0  0
   -0.7426    0.9225   -1.6693 H   0  0  0  0  0  0  0  0  0  0  0  0
   -0.0404    2.1116   -0.5532 H   0  0  0  0  0  0  0  0  0  0  0  0
    4.7432    1.6502    2.0353 H   0  0  0  0  0  0  0  0  0  0  0  0
    2.9945    1.5842    1.8041 H   0  0  0  0  0  0  0  0  0  0  0  0
    4.0910    1.4042    0.4123 H   0  0  0  0  0  0  0  0  0  0  0  0
    5.2464   -2.7964    2.9327 H   0  0  0  0  0  0  0  0  0  0  0  0
    1.7082   -7.2482    0.7472 H   0  0  0  0  0  0  0  0  0  0  0  0
    2.1778   -6.2480    2.1253 H   0  0  0  0  0  0  0  0  0  0  0  0
    3.2554   -6.3977    0.7052 H   0  0  0  0  0  0  0  0  0  0  0  0
 25  1  1  0
  1  2  2  0
  2  3  1  0
  3  4  1  0
  4 26  1  0
  4 27  1  0
  4 28  1  0
  2  5  1  0
  5 29  1  0
  5  6  2  0
  6  7  1  0
  7  8  1  0
  8 30  1  0
  8 31  1  0
  8  9  1  0
  9 10  1  0
 10 32  1  0
 10 33  1  0
 10 11  1  0
 11 34  1  0
 11 35  1  0
 11 12  1  0
 12 13  1  0
 13 36  1  0
 13 37  1  0
  9 14  1  0
 13 14  1  0
 14 38  1  0
 14 39  1  0
  7 15  2  0
 15 16  1  0
 16 17  1  0
 17 40  1  0
 17 41  1  0
 17 42  1  0
 16 18  2  0
 18 19  1  0
 19 43  1  0
 15 20  1  0
 19 20  1  0
 20 21  2  0
  6 22  1  0
 21 22  1  0
  1 23  1  0
 22 23  2  0
 23 24  1  0
 24 44  1  0
 24 45  1  0
 24 46  1  0
M  END
>  <conformer_energy>  (1) 
116.87

>  <ligand_smiles>  (1) 
COc1cc(C)c2nc3[nH]nc(C)c3c(CN3CCOCC3)c2c1

>  <ligand_conf_name>  (1) 
MOL_0_isomer_0_conf_0

>  <ligand_molecule_name>  (1) 
MOL_0_isomer_0

$$$$
