MOL_0_isomer_0_conf_0
     RDKit          3D

 84 89  0  0  0  0  0  0  0  0999 V2000
    0.1716    2.2437    8.3239 O   0  0  0  0  0  0  0  0  0  0  0  0
    0.3734    3.0316    7.1563 C   0  0  1  0  0  0  0  0  0  0  0  0
   -0.6816    4.1227    7.0393 C   0  0  1  0  0  0  0  0  0  0  0  0
   -0.9150    4.6819    8.3597 O   0  0  0  0  0  0  0  0  0  0  0  0
    0.0009    5.1352    6.1200 C   0  0  2  0  0  0  0  0  0  0  0  0
   -0.2900    4.9456    4.7121 N   0  0  0  0  0  0  0  0  0  0  0  0
    0.5248    4.4451    3.7320 C   0  0  0  0  0  0  0  0  0  0  0  0
   -0.0983    4.3409    2.5705 N   0  0  0  0  0  0  0  0  0  0  0  0
   -1.3539    4.8599    2.8046 C   0  0  0  0  0  0  0  0  0  0  0  0
   -2.4825    5.0117    1.9836 C   0  0  0  0  0  0  0  0  0  0  0  0
   -2.4997    4.6190    0.6644 N   0  0  0  0  0  0  0  0  0  0  0  0
   -3.6179    5.5146    2.5255 N   0  0  0  0  0  0  0  0  0  0  0  0
   -3.5946    5.8820    3.8247 C   0  0  0  0  0  0  0  0  0  0  0  0
   -2.5836    5.7738    4.7086 N   0  0  0  0  0  0  0  0  0  0  0  0
   -1.4915    5.2465    4.1266 C   0  0  0  0  0  0  0  0  0  0  0  0
    1.4105    5.0162    6.3761 O   0  0  0  0  0  0  0  0  0  0  0  0
    1.6601    3.8514    7.1989 C   0  0  2  0  0  0  0  0  0  0  0  0
    2.8850    3.0723    6.7281 C   0  0  0  0  0  0  0  0  0  0  0  0
    4.0479    3.8215    7.0349 O   0  0  0  0  0  0  0  0  0  0  0  0
    5.4837    3.1445    6.6952 P   0  0  1  0  0  5  0  0  0  0  0  0
    6.5674    4.0355    7.2532 O   0  0  0  0  0  0  0  0  0  0  0  0
    5.4139    1.7009    7.1682 O   0  0  0  0  0  1  0  0  0  0  0  0
    5.4741    3.1175    5.0986 O   0  0  0  0  0  0  0  0  0  0  0  0
    5.2346    4.2058    3.9593 P   0  0  2  0  0  5  0  0  0  0  0  0
    6.4593    5.0373    3.6636 O   0  0  0  0  0  0  0  0  0  0  0  0
    3.8609    4.8324    4.0489 O   0  0  0  0  0  1  0  0  0  0  0  0
    5.1305    3.1520    2.7005 O   0  0  0  0  0  0  0  0  0  0  0  0
    3.9461    2.3714    2.6585 C   0  0  0  0  0  0  0  0  0  0  0  0
    4.0665    1.4294    1.4667 C   0  0  1  0  0  0  0  0  0  0  0  0
    5.2536    0.6163    1.6395 O   0  0  0  0  0  0  0  0  0  0  0  0
    2.8736    0.4639    1.3133 C   0  0  1  0  0  0  0  0  0  0  0  0
    2.8813   -0.4927    2.3845 O   0  0  0  0  0  0  0  0  0  0  0  0
    1.4905    1.1392    1.2065 C   0  0  1  0  0  0  0  0  0  0  0  0
    1.5125    2.1035    0.1472 O   0  0  0  0  0  0  0  0  0  0  0  0
    0.4150    0.0550    0.9606 C   0  0  0  0  0  0  0  0  0  0  0  0
   -0.8772    0.6022    0.5063 N   0  0  0  0  0  0  0  0  0  0  0  0
   -1.7984    1.0767    1.4302 C   0  0  0  0  0  0  0  0  0  0  0  0
   -1.5662    1.1320    2.7070 N   0  0  0  0  0  0  0  0  0  0  0  0
   -2.4600    1.6462    3.5962 C   0  0  0  0  0  0  0  0  0  0  0  0
   -2.1757    1.8216    4.7794 O   0  0  0  0  0  0  0  0  0  0  0  0
   -3.7245    1.9733    3.1880 N   0  0  0  0  0  0  0  0  0  0  0  0
   -4.1943    1.9179    1.9132 C   0  0  0  0  0  0  0  0  0  0  0  0
   -5.3500    2.1552    1.6029 O   0  0  0  0  0  0  0  0  0  0  0  0
   -3.1489    1.5138    0.9097 C   0  0  0  0  0  0  0  0  0  0  0  0
   -3.4392    1.5329   -0.3584 N   0  0  0  0  0  0  0  0  0  0  0  0
   -2.4356    1.1704   -1.2733 C   0  0  0  0  0  0  0  0  0  0  0  0
   -2.7536    1.2884   -2.6339 C   0  0  0  0  0  0  0  0  0  0  0  0
   -1.8313    0.9659   -3.6373 C   0  0  0  0  0  0  0  0  0  0  0  0
   -2.2218    1.1255   -5.0763 C   0  0  0  0  0  0  0  0  0  0  0  0
   -0.5477    0.5465   -3.2600 C   0  0  0  0  0  0  0  0  0  0  0  0
    0.5038    0.2026   -4.2802 C   0  0  0  0  0  0  0  0  0  0  0  0
   -0.2380    0.4181   -1.8912 C   0  0  0  0  0  0  0  0  0  0  0  0
   -1.1622    0.7146   -0.8734 C   0  0  0  0  0  0  0  0  0  0  0  0
   -0.3034    2.8180    8.9598 H   0  0  0  0  0  0  0  0  0  0  0  0
    0.3549    2.3792    6.2769 H   0  0  0  0  0  0  0  0  0  0  0  0
   -1.6394    3.7418    6.6790 H   0  0  0  0  0  0  0  0  0  0  0  0
   -0.1265    5.2170    8.5902 H   0  0  0  0  0  0  0  0  0  0  0  0
   -0.2830    6.1675    6.3629 H   0  0  0  0  0  0  0  0  0  0  0  0
    1.5583    4.1816    3.9263 H   0  0  0  0  0  0  0  0  0  0  0  0
   -3.3479    4.7354    0.1377 H   0  0  0  0  0  0  0  0  0  0  0  0
   -1.6251    4.3701    0.2244 H   0  0  0  0  0  0  0  0  0  0  0  0
   -4.5156    6.3052    4.2112 H   0  0  0  0  0  0  0  0  0  0  0  0
    1.8539    4.2169    8.2145 H   0  0  0  0  0  0  0  0  0  0  0  0
    2.8424    2.8986    5.6501 H   0  0  0  0  0  0  0  0  0  0  0  0
    2.9254    2.1114    7.2509 H   0  0  0  0  0  0  0  0  0  0  0  0
    3.8509    1.8117    3.5943 H   0  0  0  0  0  0  0  0  0  0  0  0
    3.0875    3.0305    2.5286 H   0  0  0  0  0  0  0  0  0  0  0  0
    4.2165    2.0091    0.5466 H   0  0  0  0  0  0  0  0  0  0  0  0
    5.8999    1.2341    2.0599 H   0  0  0  0  0  0  0  0  0  0  0  0
    3.0539   -0.1204    0.4005 H   0  0  0  0  0  0  0  0  0  0  0  0
    3.8334   -0.6388    2.5714 H   0  0  0  0  0  0  0  0  0  0  0  0
    1.2385    1.6565    2.1418 H   0  0  0  0  0  0  0  0  0  0  0  0
    1.5500    2.9854    0.5781 H   0  0  0  0  0  0  0  0  0  0  0  0
    0.7752   -0.7078    0.2623 H   0  0  0  0  0  0  0  0  0  0  0  0
    0.2596   -0.5068    1.8909 H   0  0  0  0  0  0  0  0  0  0  0  0
   -4.3418    2.3237    3.9013 H   0  0  0  0  0  0  0  0  0  0  0  0
   -3.7454    1.6425   -2.8973 H   0  0  0  0  0  0  0  0  0  0  0  0
   -3.3064    1.2313   -5.1835 H   0  0  0  0  0  0  0  0  0  0  0  0
   -1.9296    0.2502   -5.6662 H   0  0  0  0  0  0  0  0  0  0  0  0
   -1.7487    2.0194   -5.4926 H   0  0  0  0  0  0  0  0  0  0  0  0
    1.4955    0.1107   -3.8236 H   0  0  0  0  0  0  0  0  0  0  0  0
    0.5757    0.9882   -5.0398 H   0  0  0  0  0  0  0  0  0  0  0  0
    0.2642   -0.7500   -4.7639 H   0  0  0  0  0  0  0  0  0  0  0  0
    0.7742    0.1112   -1.6365 H   0  0  0  0  0  0  0  0  0  0  0  0
 54  1  1  0
  1  2  1  0
  2 55  1  6
  2  3  1  0
  3 56  1  6
  3  4  1  0
  4 57  1  0
  3  5  1  0
  5 58  1  1
  5  6  1  0
  6  7  1  0
  7 59  1  0
  7  8  2  0
  8  9  1  0
  9 10  1  0
 10 11  1  0
 11 60  1  0
 11 61  1  0
 10 12  2  0
 12 13  1  0
 13 62  1  0
 13 14  2  0
  9 15  2  0
  6 15  1  0
 14 15  1  0
  5 16  1  0
  2 17  1  0
 16 17  1  0
 17 63  1  1
 17 18  1  0
 18 64  1  0
 18 65  1  0
 18 19  1  0
 19 20  1  0
 20 21  2  0
 20 22  1  1
 20 23  1  0
 23 24  1  0
 24 25  2  0
 24 26  1  1
 24 27  1  0
 27 28  1  0
 28 66  1  0
 28 67  1  0
 28 29  1  0
 29 68  1  6
 29 30  1  0
 30 69  1  0
 29 31  1  0
 31 70  1  6
 31 32  1  0
 32 71  1  0
 31 33  1  0
 33 72  1  1
 33 34  1  0
 34 73  1  0
 33 35  1  0
 35 74  1  0
 35 75  1  0
 35 36  1  0
 36 37  1  0
 37 38  2  0
 38 39  1  0
 39 40  2  0
 39 41  1  0
 41 76  1  0
 41 42  1  0
 42 43  2  0
 37 44  1  0
 42 44  1  0
 44 45  2  0
 45 46  1  0
 46 47  1  0
 47 77  1  0
 47 48  2  0
 48 49  1  0
 49 78  1  0
 49 79  1  0
 49 80  1  0
 48 50  1  0
 50 51  1  0
 51 81  1  0
 51 82  1  0
 51 83  1  0
 50 52  2  0
 52 84  1  0
 46 53  2  0
 36 53  1  0
 52 53  1  0
M  CHG  2  22  -1  26  -1
M  END
>  <conformer_energy>  (1) 
-31.81

>  <ligand_smiles>  (1) 
Cc1cc2nc3c(=O)[nH]c(=O)nc-3n(C[C@H](O)[C@H](O)[C@H](O)CO[P@@](=O)([O-])O[P@](=O)([O-])OC[C@H]3O[C@@H](n4cnc5c(N)ncnc54)[C@H](O)[C@@H]3O)c2cc1C

>  <ligand_conf_name>  (1) 
MOL_0_isomer_0_conf_0

>  <ligand_molecule_name>  (1) 
MOL_0_isomer_0

$$$$
