1Q4G - prepared_ligand6_conf_0
     RDKit          3D

 30 31  0  0  0  0  0  0  0  0999 V2000
    8.6263   -0.0903    0.1018 C   0  0  0  0  0  0  0  0  0  0  0  0
    7.8874   -0.9442    0.9172 C   0  0  0  0  0  0  0  0  0  0  0  0
    6.4905   -0.9074    0.8848 C   0  0  0  0  0  0  0  0  0  0  0  0
    5.8080   -0.0191    0.0371 C   0  0  0  0  0  0  0  0  0  0  0  0
    4.3365    0.0194    0.0027 C   0  0  0  0  0  0  0  0  0  0  0  0
    3.5885    0.2000    1.1766 C   0  0  0  0  0  0  0  0  0  0  0  0
    2.1902    0.2442    1.1438 C   0  0  0  0  0  0  0  0  0  0  0  0
    1.4977    0.1076   -0.0655 C   0  0  0  0  0  0  0  0  0  0  0  0
   -0.0223    0.1326   -0.0827 C   0  0  1  0  0  0  0  0  0  0  0  0
   -0.5615    1.2306   -1.0263 C   0  0  0  0  0  0  0  0  0  0  0  0
   -0.8013    0.8804   -2.2193 O   0  0  0  0  0  0  0  0  0  0  0  0
   -0.7325    2.3635   -0.4849 O   0  0  0  0  0  0  0  0  0  0  0  0
   -0.5899   -1.2448   -0.4233 C   0  0  0  0  0  0  0  0  0  0  0  0
    2.2388   -0.0726   -1.2399 C   0  0  0  0  0  0  0  0  0  0  0  0
    3.6365   -0.1145   -1.2060 C   0  0  0  0  0  0  0  0  0  0  0  0
    6.5728    0.8328   -0.7769 C   0  0  0  0  0  0  0  0  0  0  0  0
    7.9696    0.7989   -0.7454 C   0  0  0  0  0  0  0  0  0  0  0  0
    9.7119   -0.1173    0.1264 H   0  0  0  0  0  0  0  0  0  0  0  0
    8.3940   -1.6418    1.5780 H   0  0  0  0  0  0  0  0  0  0  0  0
    5.9281   -1.5888    1.5199 H   0  0  0  0  0  0  0  0  0  0  0  0
    4.0911    0.3297    2.1316 H   0  0  0  0  0  0  0  0  0  0  0  0
    1.6395    0.4007    2.0680 H   0  0  0  0  0  0  0  0  0  0  0  0
   -0.3838    0.3857    0.9240 H   0  0  0  0  0  0  0  0  0  0  0  0
   -1.6852   -1.2203   -0.4304 H   0  0  0  0  0  0  0  0  0  0  0  0
   -0.2745   -1.9895    0.3162 H   0  0  0  0  0  0  0  0  0  0  0  0
   -0.2619   -1.5996   -1.4068 H   0  0  0  0  0  0  0  0  0  0  0  0
    1.7219   -0.1680   -2.1946 H   0  0  0  0  0  0  0  0  0  0  0  0
    4.1726   -0.2567   -2.1410 H   0  0  0  0  0  0  0  0  0  0  0  0
    6.0747    1.5422   -1.4359 H   0  0  0  0  0  0  0  0  0  0  0  0
    8.5394    1.4703   -1.3816 H   0  0  0  0  0  0  0  0  0  0  0  0
 18  1  1  0
  1  2  2  0
  2 19  1  0
  2  3  1  0
  3 20  1  0
  3  4  2  0
  4  5  1  0
  5  6  2  0
  6 21  1  0
  6  7  1  0
  7 22  1  0
  7  8  2  0
  8  9  1  0
  9 23  1  1
  9 10  1  0
 10 11  2  0
 10 12  1  0
  9 13  1  0
 13 24  1  0
 13 25  1  0
 13 26  1  0
  8 14  1  0
 14 27  1  0
  5 15  1  0
 14 15  2  0
 15 28  1  0
  4 16  1  0
 16 29  1  0
  1 17  1  0
 16 17  2  0
 17 30  1  0
M  CHG  1  12  -1
M  END
>  <conformer_energy>  (1) 
75.87

>  <ligand_smiles>  (1) 
C[C@H](C(=O)[O-])c1ccc(-c2ccccc2)cc1

>  <ligand_conf_name>  (1) 
1Q4G - prepared_ligand6_conf_0

>  <ligand_molecule_name>  (1) 
1Q4G - prepared_ligand6

$$$$
