MOL_0_isomer_0_conf_0
     RDKit          3D

100104  0  0  0  0  0  0  0  0999 V2000
    3.8359   -4.3857    0.5296 O   0  0  0  0  0  0  0  0  0  0  0  0
    3.4431   -4.7283    1.8761 C   0  0  2  0  0  0  0  0  0  0  0  0
    1.9408   -5.0534    1.8290 C   0  0  0  0  0  0  0  0  0  0  0  0
    1.6299   -5.7330    0.4966 N   0  0  1  0  0  4  0  0  0  0  0  0
    1.8912   -7.2114    0.5331 C   0  0  0  0  0  0  0  0  0  0  0  0
    1.7645   -7.7848   -0.8805 C   0  0  1  0  0  0  0  0  0  0  0  0
    2.0771   -9.2891   -0.9072 C   0  0  0  0  0  0  0  0  0  0  0  0
    0.9561  -10.1506   -0.3324 C   0  0  0  0  0  0  0  0  0  0  0  0
   -0.3786   -9.8506   -1.0051 C   0  0  0  0  0  0  0  0  0  0  0  0
   -0.7271   -8.3687   -0.9138 C   0  0  0  0  0  0  0  0  0  0  0  0
    0.3869   -7.4890   -1.5036 C   0  0  1  0  0  0  0  0  0  0  0  0
    0.0543   -5.9912   -1.4201 C   0  0  0  0  0  0  0  0  0  0  0  0
    0.2488   -5.3547   -0.0405 C   0  0  1  0  0  0  0  0  0  0  0  0
   -0.9119   -5.6327    0.9525 C   0  0  0  0  0  0  0  0  0  0  0  0
   -0.7128   -6.2179    2.0153 O   0  0  0  0  0  0  0  0  0  0  0  0
   -2.1445   -5.1399    0.5819 N   0  0  0  0  0  0  0  0  0  0  0  0
   -3.3738   -5.2763    1.3916 C   0  0  0  0  0  0  0  0  0  0  0  0
   -3.2292   -4.5375    2.7323 C   0  0  0  0  0  0  0  0  0  0  0  0
   -4.5351   -4.6382    0.6079 C   0  0  0  0  0  0  0  0  0  0  0  0
   -3.7136   -6.7559    1.6319 C   0  0  0  0  0  0  0  0  0  0  0  0
    3.7901   -3.6252    2.9211 C   0  0  1  0  0  0  0  0  0  0  0  0
    3.1962   -2.3353    2.5527 N   0  0  0  0  0  0  0  0  0  0  0  0
    3.7074   -1.5454    1.5436 C   0  0  0  0  0  0  0  0  0  0  0  0
    4.7630   -1.8319    0.9820 O   0  0  0  0  0  0  0  0  0  0  0  0
    2.9467   -0.2301    1.3017 C   0  0  1  0  0  0  0  0  0  0  0  0
    1.5112   -0.4101    1.5534 N   0  0  0  0  0  0  0  0  0  0  0  0
    0.7379   -1.1717    0.6948 C   0  0  0  0  0  0  0  0  0  0  0  0
    1.1966   -1.9968   -0.0903 O   0  0  0  0  0  0  0  0  0  0  0  0
   -0.7334   -0.9397    0.7854 C   0  0  0  0  0  0  0  0  0  0  0  0
   -1.1866   -0.4619    1.9714 N   0  0  0  0  0  0  0  0  0  0  0  0
   -2.5127   -0.2672    2.0891 C   0  0  0  0  0  0  0  0  0  0  0  0
   -3.0286    0.2153    3.2836 C   0  0  0  0  0  0  0  0  0  0  0  0
   -4.4004    0.4251    3.4605 C   0  0  0  0  0  0  0  0  0  0  0  0
   -5.2845    0.1499    2.4248 C   0  0  0  0  0  0  0  0  0  0  0  0
   -4.7958   -0.3313    1.2122 C   0  0  0  0  0  0  0  0  0  0  0  0
   -3.4178   -0.5417    1.0369 C   0  0  0  0  0  0  0  0  0  0  0  0
   -2.9039   -1.0245   -0.1727 C   0  0  0  0  0  0  0  0  0  0  0  0
   -1.5376   -1.2362   -0.3033 C   0  0  0  0  0  0  0  0  0  0  0  0
    3.5729    0.8350    2.2041 C   0  0  0  0  0  0  0  0  0  0  0  0
    3.1209    2.2201    1.8131 C   0  0  0  0  0  0  0  0  0  0  0  0
    2.0427    2.4563    1.2831 O   0  0  0  0  0  0  0  0  0  0  0  0
    3.9757    3.2229    2.1523 N   0  0  0  0  0  0  0  0  0  0  0  0
    3.3876   -3.9934    4.3652 C   0  0  0  0  0  0  0  0  0  0  0  0
    3.9259   -5.3208    4.8389 C   0  0  0  0  0  0  0  0  0  0  0  0
    5.3087   -5.5471    4.9138 C   0  0  0  0  0  0  0  0  0  0  0  0
    5.8015   -6.7869    5.3229 C   0  0  0  0  0  0  0  0  0  0  0  0
    4.9208   -7.8098    5.6696 C   0  0  0  0  0  0  0  0  0  0  0  0
    3.5462   -7.5885    5.6230 C   0  0  0  0  0  0  0  0  0  0  0  0
    3.0504   -6.3499    5.2141 C   0  0  0  0  0  0  0  0  0  0  0  0
    4.4858   -3.6452    0.5796 H   0  0  0  0  0  0  0  0  0  0  0  0
    3.9999   -5.6409    2.1142 H   0  0  0  0  0  0  0  0  0  0  0  0
    1.3495   -4.1322    1.8558 H   0  0  0  0  0  0  0  0  0  0  0  0
    1.6302   -5.7083    2.6475 H   0  0  0  0  0  0  0  0  0  0  0  0
    2.3355   -5.2954   -0.1304 H   0  0  0  0  0  0  0  0  0  0  0  0
    2.9102   -7.3520    0.9092 H   0  0  0  0  0  0  0  0  0  0  0  0
    1.1949   -7.6654    1.2436 H   0  0  0  0  0  0  0  0  0  0  0  0
    2.5246   -7.2866   -1.4992 H   0  0  0  0  0  0  0  0  0  0  0  0
    3.0098   -9.4926   -0.3674 H   0  0  0  0  0  0  0  0  0  0  0  0
    2.2498   -9.5914   -1.9488 H   0  0  0  0  0  0  0  0  0  0  0  0
    1.2028  -11.2099   -0.4682 H   0  0  0  0  0  0  0  0  0  0  0  0
    0.8729   -9.9827    0.7477 H   0  0  0  0  0  0  0  0  0  0  0  0
   -0.3376  -10.1535   -2.0579 H   0  0  0  0  0  0  0  0  0  0  0  0
   -1.1708  -10.4437   -0.5357 H   0  0  0  0  0  0  0  0  0  0  0  0
   -0.9127   -8.1236    0.1357 H   0  0  0  0  0  0  0  0  0  0  0  0
   -1.6656   -8.1851   -1.4507 H   0  0  0  0  0  0  0  0  0  0  0  0
    0.4490   -7.7406   -2.5727 H   0  0  0  0  0  0  0  0  0  0  0  0
    0.7157   -5.4671   -2.1230 H   0  0  0  0  0  0  0  0  0  0  0  0
   -0.9625   -5.8203   -1.7912 H   0  0  0  0  0  0  0  0  0  0  0  0
    0.2761   -4.2686   -0.1739 H   0  0  0  0  0  0  0  0  0  0  0  0
   -2.2309   -4.6131   -0.2787 H   0  0  0  0  0  0  0  0  0  0  0  0
   -4.1696   -4.5516    3.2960 H   0  0  0  0  0  0  0  0  0  0  0  0
   -2.9452   -3.4901    2.5763 H   0  0  0  0  0  0  0  0  0  0  0  0
   -2.4632   -4.9906    3.3709 H   0  0  0  0  0  0  0  0  0  0  0  0
   -5.4793   -4.7127    1.1587 H   0  0  0  0  0  0  0  0  0  0  0  0
   -4.6721   -5.1275   -0.3628 H   0  0  0  0  0  0  0  0  0  0  0  0
   -4.3463   -3.5780    0.4128 H   0  0  0  0  0  0  0  0  0  0  0  0
   -4.6775   -6.8620    2.1428 H   0  0  0  0  0  0  0  0  0  0  0  0
   -2.9641   -7.2563    2.2533 H   0  0  0  0  0  0  0  0  0  0  0  0
   -3.7718   -7.3027    0.6836 H   0  0  0  0  0  0  0  0  0  0  0  0
    4.8772   -3.4772    2.8815 H   0  0  0  0  0  0  0  0  0  0  0  0
    2.3223   -2.0200    2.9658 H   0  0  0  0  0  0  0  0  0  0  0  0
    3.0668    0.0275    0.2413 H   0  0  0  0  0  0  0  0  0  0  0  0
    1.0043    0.3303    2.0432 H   0  0  0  0  0  0  0  0  0  0  0  0
   -2.3508    0.4411    4.1025 H   0  0  0  0  0  0  0  0  0  0  0  0
   -4.7740    0.8048    4.4087 H   0  0  0  0  0  0  0  0  0  0  0  0
   -6.3514    0.3197    2.5567 H   0  0  0  0  0  0  0  0  0  0  0  0
   -5.4980   -0.5356    0.4069 H   0  0  0  0  0  0  0  0  0  0  0  0
   -3.5630   -1.2282   -1.0129 H   0  0  0  0  0  0  0  0  0  0  0  0
   -1.1139   -1.5927   -1.2363 H   0  0  0  0  0  0  0  0  0  0  0  0
    3.2990    0.6746    3.2552 H   0  0  0  0  0  0  0  0  0  0  0  0
    4.6686    0.7905    2.1402 H   0  0  0  0  0  0  0  0  0  0  0  0
    4.8737    3.0816    2.5946 H   0  0  0  0  0  0  0  0  0  0  0  0
    3.7030    4.1733    1.9286 H   0  0  0  0  0  0  0  0  0  0  0  0
    2.2934   -3.9789    4.4563 H   0  0  0  0  0  0  0  0  0  0  0  0
    3.7418   -3.2130    5.0531 H   0  0  0  0  0  0  0  0  0  0  0  0
    6.0198   -4.7604    4.6650 H   0  0  0  0  0  0  0  0  0  0  0  0
    6.8761   -6.9541    5.3822 H   0  0  0  0  0  0  0  0  0  0  0  0
    5.3071   -8.7722    5.9962 H   0  0  0  0  0  0  0  0  0  0  0  0
    2.8611   -8.3792    5.9207 H   0  0  0  0  0  0  0  0  0  0  0  0
    1.9723   -6.1996    5.2051 H   0  0  0  0  0  0  0  0  0  0  0  0
 50  1  1  0
  1  2  1  0
  2 51  1  1
  2  3  1  0
  3 52  1  0
  3 53  1  0
  3  4  1  0
  4 54  1  6
  4  5  1  0
  5 55  1  0
  5 56  1  0
  5  6  1  0
  6 57  1  6
  6  7  1  0
  7 58  1  0
  7 59  1  0
  7  8  1  0
  8 60  1  0
  8 61  1  0
  8  9  1  0
  9 62  1  0
  9 63  1  0
  9 10  1  0
 10 64  1  0
 10 65  1  0
  6 11  1  0
 10 11  1  0
 11 66  1  6
 11 12  1  0
 12 67  1  0
 12 68  1  0
  4 13  1  0
 12 13  1  0
 13 69  1  6
 13 14  1  0
 14 15  2  0
 14 16  1  0
 16 70  1  0
 16 17  1  0
 17 18  1  0
 18 71  1  0
 18 72  1  0
 18 73  1  0
 17 19  1  0
 19 74  1  0
 19 75  1  0
 19 76  1  0
 17 20  1  0
 20 77  1  0
 20 78  1  0
 20 79  1  0
  2 21  1  0
 21 80  1  1
 21 22  1  0
 22 81  1  0
 22 23  1  0
 23 24  2  0
 23 25  1  0
 25 82  1  6
 25 26  1  0
 26 83  1  0
 26 27  1  0
 27 28  2  0
 27 29  1  0
 29 30  2  0
 30 31  1  0
 31 32  2  0
 32 84  1  0
 32 33  1  0
 33 85  1  0
 33 34  2  0
 34 86  1  0
 34 35  1  0
 35 87  1  0
 31 36  1  0
 35 36  2  0
 36 37  1  0
 37 88  1  0
 29 38  1  0
 37 38  2  0
 38 89  1  0
 25 39  1  0
 39 90  1  0
 39 91  1  0
 39 40  1  0
 40 41  2  0
 40 42  1  0
 42 92  1  0
 42 93  1  0
 21 43  1  0
 43 94  1  0
 43 95  1  0
 43 44  1  0
 44 45  2  0
 45 96  1  0
 45 46  1  0
 46 97  1  0
 46 47  2  0
 47 98  1  0
 47 48  1  0
 48 99  1  0
 44 49  1  0
 48 49  2  0
 49100  1  0
M  CHG  1   4   1
M  END
>  <conformer_energy>  (1) 
114.29

>  <ligand_smiles>  (1) 
CC(C)(C)NC(=O)[C@@H]1C[C@@H]2CCCC[C@@H]2C[N@@H+]1C[C@@H](O)[C@H](Cc1ccccc1)NC(=O)[C@H](CC(N)=O)NC(=O)c1ccc2ccccc2n1

>  <ligand_conf_name>  (1) 
MOL_0_isomer_0_conf_0

>  <ligand_molecule_name>  (1) 
MOL_0_isomer_0

$$$$
