MOL_0_isomer_0_conf_0
     RDKit          3D

 20 20  0  0  0  0  0  0  0  0999 V2000
    2.2743   -0.2387    1.0873 C   0  0  0  0  0  0  0  0  0  0  0  0
    3.6725   -0.1826    0.9949 C   0  0  0  0  0  0  0  0  0  0  0  0
    4.4986   -0.5202    2.2094 C   0  0  0  0  0  0  0  0  0  0  0  0
    4.2678    0.1851   -0.2213 C   0  0  0  0  0  0  0  0  0  0  0  0
    5.6413    0.2561   -0.3665 N   0  0  0  0  0  0  0  0  0  0  0  0
    3.4258    0.4812   -1.2950 C   0  0  0  0  0  0  0  0  0  0  0  0
    2.0920    0.4167   -1.1694 N   0  0  0  0  0  4  0  0  0  0  0  0
    1.4860    0.0688   -0.0217 C   0  0  0  0  0  0  0  0  0  0  0  0
   -0.0064    0.0224    0.0307 C   0  0  0  0  0  0  0  0  0  0  0  0
    1.7985   -0.5228    2.0256 H   0  0  0  0  0  0  0  0  0  0  0  0
    3.8680   -0.7833    3.0653 H   0  0  0  0  0  0  0  0  0  0  0  0
    5.1104    0.3391    2.5022 H   0  0  0  0  0  0  0  0  0  0  0  0
    5.1462   -1.3778    2.0007 H   0  0  0  0  0  0  0  0  0  0  0  0
    6.0949    0.5189   -1.2337 H   0  0  0  0  0  0  0  0  0  0  0  0
    6.2624    0.0429    0.4075 H   0  0  0  0  0  0  0  0  0  0  0  0
    3.8005    0.7737   -2.2697 H   0  0  0  0  0  0  0  0  0  0  0  0
    1.5199    0.6425   -1.9831 H   0  0  0  0  0  0  0  0  0  0  0  0
   -0.3793    0.7237    0.7835 H   0  0  0  0  0  0  0  0  0  0  0  0
   -0.3436   -0.9875    0.2836 H   0  0  0  0  0  0  0  0  0  0  0  0
   -0.4436    0.2954   -0.9347 H   0  0  0  0  0  0  0  0  0  0  0  0
 10  1  1  0
  1  2  2  0
  2  3  1  0
  3 11  1  0
  3 12  1  0
  3 13  1  0
  2  4  1  0
  4  5  1  0
  5 14  1  0
  5 15  1  0
  4  6  2  0
  6 16  1  0
  6  7  1  0
  7 17  1  0
  1  8  1  0
  7  8  2  0
  8  9  1  0
  9 18  1  0
  9 19  1  0
  9 20  1  0
M  CHG  1   7   1
M  END
>  <conformer_energy>  (1) 
55.24

>  <ligand_smiles>  (1) 
Cc1cc(C)c(N)c[nH+]1

>  <ligand_conf_name>  (1) 
MOL_0_isomer_0_conf_0

>  <ligand_molecule_name>  (1) 
MOL_0_isomer_0

$$$$
