MOL_0_isomer_0_conf_0
     RDKit          3D

 56 58  0  0  0  0  0  0  0  0999 V2000
    5.6445   -1.6916   -3.9018 O   0  0  0  0  0  0  0  0  0  0  0  0
    6.1457   -1.4867   -2.5793 C   0  0  0  0  0  0  0  0  0  0  0  0
    5.4885   -0.2536   -1.9498 C   0  0  1  0  0  0  0  0  0  0  0  0
    5.7886    0.8643   -2.8065 O   0  0  0  0  0  0  0  0  0  0  0  0
    5.3203    2.1088   -2.2711 C   0  0  1  0  0  0  0  0  0  0  0  0
    5.6754    3.1799   -3.1493 O   0  0  0  0  0  0  0  0  0  0  0  0
    7.0791    3.3833   -3.2147 C   0  0  0  0  0  0  0  0  0  0  0  0
    3.7886    2.1040   -2.0817 C   0  0  1  0  0  0  0  0  0  0  0  0
    3.1535    2.0000   -3.3781 O   0  0  0  0  0  0  0  0  0  0  0  0
    2.4848    3.0814   -3.8235 C   0  0  0  0  0  0  0  0  0  0  0  0
    2.2961    4.1346   -3.2431 O   0  0  0  0  0  0  0  0  0  0  0  0
    1.9828    2.8027   -5.1841 C   0  0  0  0  0  0  0  0  0  0  0  0
    2.7875    2.1010   -6.0957 C   0  0  0  0  0  0  0  0  0  0  0  0
    2.3519    1.8980   -7.4100 C   0  0  0  0  0  0  0  0  0  0  0  0
    1.1166    2.4003   -7.8233 C   0  0  0  0  0  0  0  0  0  0  0  0
    0.5930    2.1482   -9.4415 Cl  0  0  0  0  0  0  0  0  0  0  0  0
    0.3032    3.0987   -6.9358 C   0  0  0  0  0  0  0  0  0  0  0  0
    0.7482    3.2893   -5.6202 C   0  0  0  0  0  0  0  0  0  0  0  0
   -0.1527    3.9527   -4.7015 N   0  0  0  0  0  4  0  0  0  0  0  0
   -0.5097    5.1002   -4.9978 O   0  0  0  0  0  0  0  0  0  0  0  0
   -0.5618    3.2888   -3.7399 O   0  0  0  0  0  1  0  0  0  0  0  0
    3.3963    0.9016   -1.2112 C   0  0  1  0  0  0  0  0  0  0  0  0
    1.9602    0.8660   -1.0842 O   0  0  0  0  0  0  0  0  0  0  0  0
    1.4789    0.1189   -0.0624 C   0  0  0  0  0  0  0  0  0  0  0  0
    2.1614   -0.4879    0.7494 O   0  0  0  0  0  0  0  0  0  0  0  0
   -0.0078    0.1365   -0.0512 C   0  0  0  0  0  0  0  0  0  0  0  0
   -0.6747   -0.6671    0.8817 C   0  0  0  0  0  0  0  0  0  0  0  0
   -2.0715   -0.6786    0.9321 C   0  0  0  0  0  0  0  0  0  0  0  0
   -2.8189    0.1222    0.0603 C   0  0  0  0  0  0  0  0  0  0  0  0
   -4.3185    0.0871    0.0923 C   0  0  0  0  0  0  0  0  0  0  0  0
   -2.1502    0.9154   -0.8794 C   0  0  0  0  0  0  0  0  0  0  0  0
   -0.7536    0.9274   -0.9329 C   0  0  0  0  0  0  0  0  0  0  0  0
    3.9617   -0.4171   -1.7789 C   0  0  1  0  0  0  0  0  0  0  0  0
    3.3065   -0.7437   -3.0114 O   0  0  0  0  0  0  0  0  0  0  0  0
    5.8120   -0.8473   -4.3702 H   0  0  0  0  0  0  0  0  0  0  0  0
    5.9474   -2.3868   -1.9902 H   0  0  0  0  0  0  0  0  0  0  0  0
    7.2289   -1.3490   -2.6589 H   0  0  0  0  0  0  0  0  0  0  0  0
    5.9552   -0.0780   -0.9720 H   0  0  0  0  0  0  0  0  0  0  0  0
    5.8013    2.2790   -1.2983 H   0  0  0  0  0  0  0  0  0  0  0  0
    7.2710    4.2345   -3.8736 H   0  0  0  0  0  0  0  0  0  0  0  0
    7.5816    2.5055   -3.6314 H   0  0  0  0  0  0  0  0  0  0  0  0
    7.4821    3.6144   -2.2240 H   0  0  0  0  0  0  0  0  0  0  0  0
    3.4751    3.0285   -1.5827 H   0  0  0  0  0  0  0  0  0  0  0  0
    3.7615    1.7192   -5.7917 H   0  0  0  0  0  0  0  0  0  0  0  0
    2.9846    1.3518   -8.1067 H   0  0  0  0  0  0  0  0  0  0  0  0
   -0.6632    3.4801   -7.2580 H   0  0  0  0  0  0  0  0  0  0  0  0
    3.8286    1.0731   -0.2148 H   0  0  0  0  0  0  0  0  0  0  0  0
   -0.1105   -1.2908    1.5720 H   0  0  0  0  0  0  0  0  0  0  0  0
   -2.5718   -1.3156    1.6584 H   0  0  0  0  0  0  0  0  0  0  0  0
   -4.6829   -0.1205    1.1039 H   0  0  0  0  0  0  0  0  0  0  0  0
   -4.6889   -0.6896   -0.5837 H   0  0  0  0  0  0  0  0  0  0  0  0
   -4.7382    1.0517   -0.2120 H   0  0  0  0  0  0  0  0  0  0  0  0
   -2.7091    1.5359   -1.5779 H   0  0  0  0  0  0  0  0  0  0  0  0
   -0.2653    1.5623   -1.6685 H   0  0  0  0  0  0  0  0  0  0  0  0
    3.7561   -1.2485   -1.0973 H   0  0  0  0  0  0  0  0  0  0  0  0
    3.8572   -1.4076   -3.4762 H   0  0  0  0  0  0  0  0  0  0  0  0
 35  1  1  0
  1  2  1  0
  2 36  1  0
  2 37  1  0
  2  3  1  0
  3 38  1  1
  3  4  1  0
  4  5  1  0
  5 39  1  1
  5  6  1  0
  6  7  1  0
  7 40  1  0
  7 41  1  0
  7 42  1  0
  5  8  1  0
  8 43  1  1
  8  9  1  0
  9 10  1  0
 10 11  2  0
 10 12  1  0
 12 13  2  0
 13 44  1  0
 13 14  1  0
 14 45  1  0
 14 15  2  0
 15 16  1  0
 15 17  1  0
 17 46  1  0
 12 18  1  0
 17 18  2  0
 18 19  1  0
 19 20  2  0
 19 21  1  0
  8 22  1  0
 22 47  1  1
 22 23  1  0
 23 24  1  0
 24 25  2  0
 24 26  1  0
 26 27  2  0
 27 48  1  0
 27 28  1  0
 28 49  1  0
 28 29  2  0
 29 30  1  0
 30 50  1  0
 30 51  1  0
 30 52  1  0
 29 31  1  0
 31 53  1  0
 26 32  1  0
 31 32  2  0
 32 54  1  0
  3 33  1  0
 22 33  1  0
 33 55  1  1
 33 34  1  0
 34 56  1  0
M  CHG  2  19   1  21  -1
M  END
>  <conformer_energy>  (1) 
114.00

>  <ligand_smiles>  (1) 
CO[C@@H]1O[C@H](CO)[C@H](O)[C@H](OC(=O)c2ccc(C)cc2)[C@@H]1OC(=O)c1ccc(Cl)cc1[N+](=O)[O-]

>  <ligand_conf_name>  (1) 
MOL_0_isomer_0_conf_0

>  <ligand_molecule_name>  (1) 
MOL_0_isomer_0

$$$$
