MOL_0_isomer_0_conf_0
     RDKit          3D

 45 47  0  0  0  0  0  0  0  0999 V2000
   -0.1091   -3.4562   -2.9630 C   0  0  0  0  0  0  0  0  0  0  0  0
   -0.4418   -4.6763   -3.5590 C   0  0  0  0  0  0  0  0  0  0  0  0
   -0.8672   -4.7393   -4.8992 C   0  0  0  0  0  0  0  0  0  0  0  0
   -1.2085   -6.0476   -5.4739 C   0  0  0  0  0  0  0  0  0  0  0  0
   -0.2789   -6.7554   -6.2488 C   0  0  0  0  0  0  0  0  0  0  0  0
   -0.5964   -8.0081   -6.7885 C   0  0  0  0  0  0  0  0  0  0  0  0
   -1.8519   -8.5868   -6.5642 C   0  0  0  0  0  0  0  0  0  0  0  0
   -2.2420   -9.9075   -7.1073 C   0  0  0  0  0  0  0  0  0  0  0  0
   -1.2750  -10.6893   -7.9474 C   0  0  0  0  0  0  0  0  0  0  0  0
   -3.4703  -10.3842   -6.8345 C   0  0  0  0  0  0  0  0  0  0  0  0
   -4.4489   -9.6352   -6.0138 C   0  0  0  0  0  0  0  0  0  0  0  0
   -5.5621  -10.0961   -5.7832 O   0  0  0  0  0  0  0  0  0  0  0  0
   -4.0453   -8.4219   -5.5369 N   0  0  0  0  0  0  0  0  0  0  0  0
   -2.7795   -7.8746   -5.7851 C   0  0  0  0  0  0  0  0  0  0  0  0
   -2.4665   -6.6233   -5.2456 C   0  0  0  0  0  0  0  0  0  0  0  0
   -0.9377   -3.5384   -5.6319 C   0  0  0  0  0  0  0  0  0  0  0  0
   -1.4609   -3.5108   -7.2830 Cl  0  0  0  0  0  0  0  0  0  0  0  0
   -0.5984   -2.3171   -5.0419 C   0  0  0  0  0  0  0  0  0  0  0  0
   -0.2001   -2.2726   -3.7025 C   0  0  0  0  0  0  0  0  0  0  0  0
    0.1440   -0.9530   -3.1119 C   0  0  0  0  0  0  0  0  0  0  0  0
    0.6530   -0.0847   -3.8120 O   0  0  0  0  0  0  0  0  0  0  0  0
   -0.1673   -0.7880   -1.7822 N   0  0  0  0  0  0  0  0  0  0  0  0
    0.1526    0.4225   -1.0440 C   0  0  0  0  0  0  0  0  0  0  0  0
    1.2754    0.1648   -0.0360 C   0  0  0  0  0  0  0  0  0  0  0  0
    0.8118   -0.7918    0.9313 O   0  0  0  0  0  0  0  0  0  0  0  0
    1.7891   -1.0304    1.9403 C   0  0  0  0  0  0  0  0  0  0  0  0
    0.2462   -3.4510   -1.9349 H   0  0  0  0  0  0  0  0  0  0  0  0
   -0.3537   -5.5925   -2.9731 H   0  0  0  0  0  0  0  0  0  0  0  0
    0.7057   -6.3322   -6.4415 H   0  0  0  0  0  0  0  0  0  0  0  0
    0.1590   -8.5134   -7.3844 H   0  0  0  0  0  0  0  0  0  0  0  0
   -0.3633  -10.9180   -7.3829 H   0  0  0  0  0  0  0  0  0  0  0  0
   -1.0036  -10.1302   -8.8505 H   0  0  0  0  0  0  0  0  0  0  0  0
   -1.7008  -11.6445   -8.2749 H   0  0  0  0  0  0  0  0  0  0  0  0
   -3.8195  -11.3425   -7.2009 H   0  0  0  0  0  0  0  0  0  0  0  0
   -4.7247   -7.9193   -4.9829 H   0  0  0  0  0  0  0  0  0  0  0  0
   -3.2024   -6.0884   -4.6495 H   0  0  0  0  0  0  0  0  0  0  0  0
   -0.6494   -1.3972   -5.6207 H   0  0  0  0  0  0  0  0  0  0  0  0
   -0.6137   -1.5267   -1.2539 H   0  0  0  0  0  0  0  0  0  0  0  0
   -0.7662    0.7119   -0.5196 H   0  0  0  0  0  0  0  0  0  0  0  0
    0.4357    1.2250   -1.7333 H   0  0  0  0  0  0  0  0  0  0  0  0
    1.5331    1.1003    0.4730 H   0  0  0  0  0  0  0  0  0  0  0  0
    2.1662   -0.2317   -0.5403 H   0  0  0  0  0  0  0  0  0  0  0  0
    1.3871   -1.7695    2.6391 H   0  0  0  0  0  0  0  0  0  0  0  0
    2.0026   -0.1106    2.4930 H   0  0  0  0  0  0  0  0  0  0  0  0
    2.7096   -1.4265    1.4967 H   0  0  0  0  0  0  0  0  0  0  0  0
 27  1  1  0
  1  2  2  0
  2 28  1  0
  2  3  1  0
  3  4  1  0
  4  5  2  0
  5 29  1  0
  5  6  1  0
  6 30  1  0
  6  7  2  0
  7  8  1  0
  8  9  1  0
  9 31  1  0
  9 32  1  0
  9 33  1  0
  8 10  2  0
 10 34  1  0
 10 11  1  0
 11 12  2  0
 11 13  1  0
 13 35  1  0
  7 14  1  0
 13 14  1  0
  4 15  1  0
 14 15  2  0
 15 36  1  0
  3 16  2  0
 16 17  1  0
 16 18  1  0
 18 37  1  0
  1 19  1  0
 18 19  2  0
 19 20  1  0
 20 21  2  0
 20 22  1  0
 22 38  1  0
 22 23  1  0
 23 39  1  0
 23 40  1  0
 23 24  1  0
 24 41  1  0
 24 42  1  0
 24 25  1  0
 25 26  1  0
 26 43  1  0
 26 44  1  0
 26 45  1  0
M  END
>  <conformer_energy>  (1) 
31.57

>  <ligand_smiles>  (1) 
COCCNC(=O)c1ccc(-c2ccc3c(C)cc(=O)[nH]c3c2)c(Cl)c1

>  <ligand_conf_name>  (1) 
MOL_0_isomer_0_conf_0

>  <ligand_molecule_name>  (1) 
MOL_0_isomer_0

$$$$
