MOL_0_isomer_0_conf_0
     RDKit          3D

 85 90  0  0  0  0  0  0  0  0999 V2000
   14.8876    3.8124   -1.8574 O   0  0  0  0  0  0  0  0  0  0  0  0
   14.3556    5.0663   -1.4140 C   0  0  0  0  0  0  0  0  0  0  0  0
   13.9764    5.0450    0.0853 C   0  0  2  0  0  0  0  0  0  0  0  0
   15.2157    5.1896    0.9603 C   0  0  0  0  0  0  0  0  0  0  0  0
   16.0540    4.1160    1.0340 N   0  0  0  0  0  0  0  0  0  0  0  0
   17.2077    4.1873    1.7341 C   0  0  0  0  0  0  0  0  0  0  0  0
   18.0729    3.1032    1.6371 N   0  0  0  0  0  0  0  0  0  0  0  0
   19.2544    2.9582    2.4963 C   0  0  0  0  0  0  0  0  0  0  0  0
   20.3338    2.0569    1.8498 C   0  0  0  0  0  0  0  0  0  0  0  0
   19.7336    0.7458    1.3645 N   0  0  0  0  0  4  0  0  0  0  0  0
   20.7719   -0.1850    0.8144 C   0  0  0  0  0  0  0  0  0  0  0  0
   18.6309    1.0303    0.3516 C   0  0  0  0  0  0  0  0  0  0  0  0
   17.5279    1.9009    0.9803 C   0  0  0  0  0  0  0  0  0  0  0  0
   17.4899    5.3385    2.4641 C   0  0  0  0  0  0  0  0  0  0  0  0
   16.6091    6.4235    2.4363 C   0  0  0  0  0  0  0  0  0  0  0  0
   15.4591    6.3575    1.6618 C   0  0  0  0  0  0  0  0  0  0  0  0
   13.2778    3.8083    0.4434 N   0  0  0  0  0  0  0  0  0  0  0  0
   11.9572    3.5826    0.1288 C   0  0  0  0  0  0  0  0  0  0  0  0
   11.3265    4.3794   -0.5655 O   0  0  0  0  0  0  0  0  0  0  0  0
   11.4016    2.2092    0.5810 C   0  0  2  0  0  0  0  0  0  0  0  0
    9.9747    2.0999    0.2840 N   0  0  0  0  0  0  0  0  0  0  0  0
    8.9454    2.5603    1.0912 C   0  0  0  0  0  0  0  0  0  0  0  0
    9.0085    3.0417    2.2069 O   0  0  0  0  0  0  0  0  0  0  0  0
    7.6977    2.3537    0.3431 C   0  0  0  0  0  0  0  0  0  0  0  0
    6.3914    2.5712    0.7478 C   0  0  0  0  0  0  0  0  0  0  0  0
    5.3558    2.2879   -0.1618 C   0  0  0  0  0  0  0  0  0  0  0  0
    3.9337    2.4623    0.1955 C   0  0  0  0  0  0  0  0  0  0  0  0
    3.1831    1.3488   -0.0261 N   0  0  0  0  0  0  0  0  0  0  0  0
    1.8764    1.3943    0.2605 C   0  0  0  0  0  0  0  0  0  0  0  0
    1.1757    0.2519    0.0060 N   0  0  0  0  0  0  0  0  0  0  0  0
   -0.2236    0.0890    0.3439 C   0  0  0  0  0  0  0  0  0  0  0  0
   -0.3843   -0.3051    1.8132 C   0  0  0  0  0  0  0  0  0  0  0  0
   -1.8375   -0.6419    2.1128 C   0  0  0  0  0  0  0  0  0  0  0  0
   -2.3099   -1.6704    1.2425 O   0  0  0  0  0  0  0  0  0  0  0  0
   -2.2682   -1.2779   -0.1301 C   0  0  0  0  0  0  0  0  0  0  0  0
   -0.8379   -0.9873   -0.5571 C   0  0  0  0  0  0  0  0  0  0  0  0
    1.2657    2.4750    0.7613 N   0  0  0  0  0  0  0  0  0  0  0  0
    2.0302    3.5706    0.9625 C   0  0  0  0  0  0  0  0  0  0  0  0
    3.3781    3.6313    0.6906 C   0  0  0  0  0  0  0  0  0  0  0  0
    4.2288    5.1049    0.9197 Cl  0  0  0  0  0  0  0  0  0  0  0  0
    5.7003    1.7765   -1.4423 C   0  0  0  0  0  0  0  0  0  0  0  0
    7.0297    1.5592   -1.8260 C   0  0  0  0  0  0  0  0  0  0  0  0
    8.0249    1.8521   -0.9136 C   0  0  0  0  0  0  0  0  0  0  0  0
    9.5037    1.7139   -1.0395 C   0  0  0  0  0  0  0  0  0  0  0  0
   11.7282    1.8941    2.0422 C   0  0  0  0  0  0  0  0  0  0  0  0
   14.1932    3.1607   -1.6648 H   0  0  0  0  0  0  0  0  0  0  0  0
   15.0955    5.8454   -1.6304 H   0  0  0  0  0  0  0  0  0  0  0  0
   13.4724    5.2594   -2.0312 H   0  0  0  0  0  0  0  0  0  0  0  0
   13.2984    5.8828    0.2805 H   0  0  0  0  0  0  0  0  0  0  0  0
   18.9502    2.5326    3.4600 H   0  0  0  0  0  0  0  0  0  0  0  0
   19.7425    3.9184    2.6895 H   0  0  0  0  0  0  0  0  0  0  0  0
   21.1203    1.8135    2.5747 H   0  0  0  0  0  0  0  0  0  0  0  0
   20.7806    2.5445    0.9737 H   0  0  0  0  0  0  0  0  0  0  0  0
   19.2923    0.2870    2.1741 H   0  0  0  0  0  0  0  0  0  0  0  0
   21.2395    0.2770   -0.0595 H   0  0  0  0  0  0  0  0  0  0  0  0
   21.5097   -0.3710    1.5988 H   0  0  0  0  0  0  0  0  0  0  0  0
   20.2735   -1.1190    0.5396 H   0  0  0  0  0  0  0  0  0  0  0  0
   18.2228    0.0646    0.0288 H   0  0  0  0  0  0  0  0  0  0  0  0
   19.0958    1.5378   -0.5017 H   0  0  0  0  0  0  0  0  0  0  0  0
   16.8354    2.1370    0.1626 H   0  0  0  0  0  0  0  0  0  0  0  0
   16.9731    1.3130    1.7223 H   0  0  0  0  0  0  0  0  0  0  0  0
   18.3881    5.4453    3.0589 H   0  0  0  0  0  0  0  0  0  0  0  0
   16.8305    7.3227    3.0071 H   0  0  0  0  0  0  0  0  0  0  0  0
   14.7776    7.2012    1.6160 H   0  0  0  0  0  0  0  0  0  0  0  0
   13.8247    3.1411    0.9737 H   0  0  0  0  0  0  0  0  0  0  0  0
   11.9037    1.4527   -0.0375 H   0  0  0  0  0  0  0  0  0  0  0  0
    6.1935    2.9320    1.7524 H   0  0  0  0  0  0  0  0  0  0  0  0
    1.7440   -0.5296   -0.2863 H   0  0  0  0  0  0  0  0  0  0  0  0
   -0.7700    1.0230    0.1536 H   0  0  0  0  0  0  0  0  0  0  0  0
    0.2412   -1.1823    2.0237 H   0  0  0  0  0  0  0  0  0  0  0  0
   -0.0441    0.4995    2.4764 H   0  0  0  0  0  0  0  0  0  0  0  0
   -1.9298   -1.0057    3.1396 H   0  0  0  0  0  0  0  0  0  0  0  0
   -2.4821    0.2413    2.0185 H   0  0  0  0  0  0  0  0  0  0  0  0
   -2.6745   -2.1020   -0.7261 H   0  0  0  0  0  0  0  0  0  0  0  0
   -2.9190   -0.4089   -0.2845 H   0  0  0  0  0  0  0  0  0  0  0  0
   -0.8096   -0.6774   -1.6076 H   0  0  0  0  0  0  0  0  0  0  0  0
   -0.2459   -1.9086   -0.4807 H   0  0  0  0  0  0  0  0  0  0  0  0
    1.4948    4.4303    1.3546 H   0  0  0  0  0  0  0  0  0  0  0  0
    4.9042    1.5405   -2.1528 H   0  0  0  0  0  0  0  0  0  0  0  0
    7.2562    1.1686   -2.8139 H   0  0  0  0  0  0  0  0  0  0  0  0
    9.8076    0.6815   -1.2384 H   0  0  0  0  0  0  0  0  0  0  0  0
    9.9077    2.3971   -1.7926 H   0  0  0  0  0  0  0  0  0  0  0  0
   11.1758    1.0148    2.3904 H   0  0  0  0  0  0  0  0  0  0  0  0
   12.7939    1.6820    2.1725 H   0  0  0  0  0  0  0  0  0  0  0  0
   11.4850    2.7316    2.7006 H   0  0  0  0  0  0  0  0  0  0  0  0
 46  1  1  0
  1  2  1  0
  2 47  1  0
  2 48  1  0
  2  3  1  0
  3 49  1  6
  3  4  1  0
  4  5  2  0
  5  6  1  0
  6  7  1  0
  7  8  1  0
  8 50  1  0
  8 51  1  0
  8  9  1  0
  9 52  1  0
  9 53  1  0
  9 10  1  0
 10 54  1  0
 10 11  1  0
 11 55  1  0
 11 56  1  0
 11 57  1  0
 10 12  1  0
 12 58  1  0
 12 59  1  0
  7 13  1  0
 12 13  1  0
 13 60  1  0
 13 61  1  0
  6 14  2  0
 14 62  1  0
 14 15  1  0
 15 63  1  0
  4 16  1  0
 15 16  2  0
 16 64  1  0
  3 17  1  0
 17 65  1  0
 17 18  1  0
 18 19  2  0
 18 20  1  0
 20 66  1  6
 20 21  1  0
 21 22  1  0
 22 23  2  0
 22 24  1  0
 24 25  1  0
 25 67  1  0
 25 26  2  0
 26 27  1  0
 27 28  2  0
 28 29  1  0
 29 30  1  0
 30 68  1  0
 30 31  1  0
 31 69  1  0
 31 32  1  0
 32 70  1  0
 32 71  1  0
 32 33  1  0
 33 72  1  0
 33 73  1  0
 33 34  1  0
 34 35  1  0
 35 74  1  0
 35 75  1  0
 31 36  1  0
 35 36  1  0
 36 76  1  0
 36 77  1  0
 29 37  2  0
 37 38  1  0
 38 78  1  0
 27 39  1  0
 38 39  2  0
 39 40  1  0
 26 41  1  0
 41 79  1  0
 41 42  2  0
 42 80  1  0
 24 43  2  0
 42 43  1  0
 21 44  1  0
 43 44  1  0
 44 81  1  0
 44 82  1  0
 20 45  1  0
 45 83  1  0
 45 84  1  0
 45 85  1  0
M  CHG  1  10   1
M  END
>  <conformer_energy>  (1) 
76.39

>  <ligand_smiles>  (1) 
C[C@H](C(=O)N[C@H](CO)c1cccc(N2CC[NH+](C)CC2)n1)N1Cc2ccc(-c3nc(NC4CCOCC4)ncc3Cl)cc2C1=O

>  <ligand_conf_name>  (1) 
MOL_0_isomer_0_conf_0

>  <ligand_molecule_name>  (1) 
MOL_0_isomer_0

$$$$
