MOL_0_isomer_0_conf_0
     RDKit          3D

 40 42  0  0  0  0  0  0  0  0999 V2000
    2.2390   -2.3192   -2.5114 O   0  0  0  0  0  0  0  0  0  0  0  0
    1.9928   -1.6609   -1.2373 C   0  0  1  0  0  0  0  0  0  0  0  0
    2.3086   -2.6543   -0.1342 C   0  0  1  0  0  0  0  0  0  0  0  0
    1.6440   -3.8934   -0.3845 O   0  0  0  0  0  0  0  0  0  0  0  0
    3.8278   -2.6437   -0.2080 C   0  0  2  0  0  0  0  0  0  0  0  0
    4.5414   -3.1164    0.9615 N   0  0  0  0  0  0  0  0  0  0  0  0
    4.3744   -2.7029    2.2643 C   0  0  0  0  0  0  0  0  0  0  0  0
    5.2467   -3.2705    3.0849 N   0  0  0  0  0  0  0  0  0  0  0  0
    5.9699   -4.1052    2.2790 C   0  0  0  0  0  0  0  0  0  0  0  0
    7.0516   -5.0090    2.5969 C   0  0  0  0  0  0  0  0  0  0  0  0
    7.5609   -5.1918    3.7020 O   0  0  0  0  0  0  0  0  0  0  0  0
    7.5148   -5.6962    1.4818 N   0  0  0  0  0  0  0  0  0  0  0  0
    7.0250   -5.5273    0.2048 C   0  0  0  0  0  0  0  0  0  0  0  0
    7.5948   -6.2731   -0.7673 N   0  0  0  0  0  0  0  0  0  0  0  0
    6.0641   -4.7041   -0.1017 N   0  0  0  0  0  0  0  0  0  0  0  0
    5.5654   -4.0287    0.9652 C   0  0  0  0  0  0  0  0  0  0  0  0
    4.2157   -1.2593   -0.4534 O   0  0  0  0  0  0  0  0  0  0  0  0
    3.0299   -0.5796   -0.9702 C   0  0  2  0  0  0  0  0  0  0  0  0
    2.5138    0.4663    0.0275 C   0  0  0  0  0  0  0  0  0  0  0  0
    1.4564    1.1869   -0.5781 O   0  0  0  0  0  0  0  0  0  0  0  0
    0.0568    1.3703    0.2598 P   0  0  2  0  0  5  0  0  0  0  0  0
   -0.8102    2.1928   -0.6896 O   0  0  0  0  0  0  0  0  0  0  0  0
    0.4414    1.9966    1.5834 O   0  0  0  0  0  1  0  0  0  0  0  0
   -0.4539   -0.1420    0.2772 O   0  0  0  0  0  0  0  0  0  0  0  0
   -0.6155   -1.4014    1.2636 P   0  0  0  0  0  5  0  0  0  0  0  0
   -1.9982   -1.3050    1.8894 O   0  0  0  0  0  0  0  0  0  0  0  0
    0.5467   -1.3656    2.2435 O   0  0  0  0  0  1  0  0  0  0  0  0
   -0.4823   -2.6176    0.3255 O   0  0  0  0  0  1  0  0  0  0  0  0
    1.6363   -3.0895   -2.4355 H   0  0  0  0  0  0  0  0  0  0  0  0
    0.9656   -1.3081   -1.2850 H   0  0  0  0  0  0  0  0  0  0  0  0
    2.0150   -2.2968    0.8451 H   0  0  0  0  0  0  0  0  0  0  0  0
    0.7063   -3.6280   -0.0943 H   0  0  0  0  0  0  0  0  0  0  0  0
    4.1742   -3.2387   -1.0616 H   0  0  0  0  0  0  0  0  0  0  0  0
    3.6023   -1.9912    2.5482 H   0  0  0  0  0  0  0  0  0  0  0  0
    8.2602   -6.3406    1.6624 H   0  0  0  0  0  0  0  0  0  0  0  0
    7.2047   -6.1584   -1.6953 H   0  0  0  0  0  0  0  0  0  0  0  0
    8.3018   -6.9676   -0.6076 H   0  0  0  0  0  0  0  0  0  0  0  0
    3.3213   -0.0885   -1.9057 H   0  0  0  0  0  0  0  0  0  0  0  0
    3.3178    1.1730    0.2605 H   0  0  0  0  0  0  0  0  0  0  0  0
    2.2224    0.0177    0.9788 H   0  0  0  0  0  0  0  0  0  0  0  0
 29  1  1  0
  1  2  1  0
  2 30  1  6
  2  3  1  0
  3 31  1  1
  3  4  1  0
  4 32  1  0
  3  5  1  0
  5 33  1  6
  5  6  1  0
  6  7  1  0
  7 34  1  0
  7  8  2  0
  8  9  1  0
  9 10  1  0
 10 11  2  0
 10 12  1  0
 12 35  1  0
 12 13  1  0
 13 14  1  0
 14 36  1  0
 14 37  1  0
 13 15  2  0
  9 16  2  0
  6 16  1  0
 15 16  1  0
  5 17  1  0
  2 18  1  0
 17 18  1  0
 18 38  1  6
 18 19  1  0
 19 39  1  0
 19 40  1  0
 19 20  1  0
 20 21  1  0
 21 22  2  0
 21 23  1  1
 21 24  1  0
 24 25  1  0
 25 26  2  0
 25 27  1  0
 25 28  1  0
M  CHG  3  23  -1  27  -1  28  -1
M  END
>  <conformer_energy>  (1) 
-47.91

>  <ligand_smiles>  (1) 
Nc1nc2c(ncn2[C@@H]2O[C@H](CO[P@](=O)([O-])OP(=O)([O-])[O-])[C@@H](O)[C@H]2O)c(=O)[nH]1

>  <ligand_conf_name>  (1) 
MOL_0_isomer_0_conf_0

>  <ligand_molecule_name>  (1) 
MOL_0_isomer_0

$$$$
