MOL_0_isomer_0_conf_0
     RDKit          3D

 42 44  0  0  0  0  0  0  0  0999 V2000
    0.6792    0.0208    2.1185 O   0  0  0  0  0  0  0  0  0  0  0  0
   -0.1693   -0.4726    1.0954 C   0  0  1  0  0  0  0  0  0  0  0  0
   -1.5672   -0.7442    1.6499 C   0  0  0  0  0  0  0  0  0  0  0  0
   -2.4926   -1.2919    0.5639 C   0  0  0  0  0  0  0  0  0  0  0  0
   -2.5378   -0.3937   -0.6650 C   0  0  0  0  0  0  0  0  0  0  0  0
   -1.1461   -0.1503   -1.1639 N   0  0  0  0  0  4  0  0  0  0  0  0
   -0.2439    0.4805   -0.1230 C   0  0  2  0  0  0  0  0  0  0  0  0
    1.1341    0.7500   -0.7333 C   0  0  0  0  0  0  0  0  0  0  0  0
    1.8932    1.7709    0.0988 C   0  0  0  0  0  0  0  0  0  0  0  0
    1.2700    2.5015    0.8778 O   0  0  0  0  0  0  0  0  0  0  0  0
    3.3865    1.9929   -0.1402 C   0  0  0  0  0  0  0  0  0  0  0  0
    4.0566    0.8919   -0.8128 N   0  0  0  0  0  0  0  0  0  0  0  0
    4.7114   -0.0669   -0.0763 C   0  0  0  0  0  0  0  0  0  0  0  0
    5.3389   -1.0738   -0.5781 N   0  0  0  0  0  0  0  0  0  0  0  0
    5.4109   -1.1757   -1.9748 C   0  0  0  0  0  0  0  0  0  0  0  0
    6.1383   -2.2237   -2.5409 C   0  0  0  0  0  0  0  0  0  0  0  0
    6.2333   -2.3536   -3.9296 C   0  0  0  0  0  0  0  0  0  0  0  0
    5.5990   -1.4340   -4.7657 C   0  0  0  0  0  0  0  0  0  0  0  0
    4.8673   -0.3832   -4.2142 C   0  0  0  0  0  0  0  0  0  0  0  0
    4.7816   -0.2630   -2.8231 C   0  0  0  0  0  0  0  0  0  0  0  0
    4.0053    0.8220   -2.1978 C   0  0  0  0  0  0  0  0  0  0  0  0
    3.2922    1.5575   -2.8756 O   0  0  0  0  0  0  0  0  0  0  0  0
    0.3687    0.8960    2.4274 H   0  0  0  0  0  0  0  0  0  0  0  0
    0.2658   -1.4273    0.7731 H   0  0  0  0  0  0  0  0  0  0  0  0
   -1.9860    0.1791    2.0701 H   0  0  0  0  0  0  0  0  0  0  0  0
   -1.5064   -1.4522    2.4850 H   0  0  0  0  0  0  0  0  0  0  0  0
   -3.5040   -1.4092    0.9689 H   0  0  0  0  0  0  0  0  0  0  0  0
   -2.1507   -2.2925    0.2707 H   0  0  0  0  0  0  0  0  0  0  0  0
   -3.0922   -0.8611   -1.4840 H   0  0  0  0  0  0  0  0  0  0  0  0
   -2.9779    0.5838   -0.4421 H   0  0  0  0  0  0  0  0  0  0  0  0
   -0.7418   -1.0347   -1.5056 H   0  0  0  0  0  0  0  0  0  0  0  0
   -1.2013    0.4676   -1.9874 H   0  0  0  0  0  0  0  0  0  0  0  0
   -0.7336    1.4216    0.1557 H   0  0  0  0  0  0  0  0  0  0  0  0
    1.6977   -0.1853   -0.7954 H   0  0  0  0  0  0  0  0  0  0  0  0
    1.0236    1.1692   -1.7385 H   0  0  0  0  0  0  0  0  0  0  0  0
    3.8571    2.1598    0.8349 H   0  0  0  0  0  0  0  0  0  0  0  0
    3.4890    2.8994   -0.7467 H   0  0  0  0  0  0  0  0  0  0  0  0
    4.6579    0.0663    1.0166 H   0  0  0  0  0  0  0  0  0  0  0  0
    6.6412   -2.9400   -1.8951 H   0  0  0  0  0  0  0  0  0  0  0  0
    6.8105   -3.1708   -4.3578 H   0  0  0  0  0  0  0  0  0  0  0  0
    5.6828   -1.5346   -5.8459 H   0  0  0  0  0  0  0  0  0  0  0  0
    4.3790    0.3378   -4.8654 H   0  0  0  0  0  0  0  0  0  0  0  0
 23  1  1  0
  1  2  1  0
  2 24  1  6
  2  3  1  0
  3 25  1  0
  3 26  1  0
  3  4  1  0
  4 27  1  0
  4 28  1  0
  4  5  1  0
  5 29  1  0
  5 30  1  0
  5  6  1  0
  6 31  1  0
  6 32  1  0
  2  7  1  0
  6  7  1  0
  7 33  1  1
  7  8  1  0
  8 34  1  0
  8 35  1  0
  8  9  1  0
  9 10  2  0
  9 11  1  0
 11 36  1  0
 11 37  1  0
 11 12  1  0
 12 13  1  0
 13 38  1  0
 13 14  2  0
 14 15  1  0
 15 16  2  0
 16 39  1  0
 16 17  1  0
 17 40  1  0
 17 18  2  0
 18 41  1  0
 18 19  1  0
 19 42  1  0
 15 20  1  0
 19 20  2  0
 12 21  1  0
 20 21  1  0
 21 22  2  0
M  CHG  1   6   1
M  END
>  <conformer_energy>  (1) 
16.52

>  <ligand_smiles>  (1) 
O=C(C[C@H]1[NH2+]CCC[C@@H]1O)Cn1cnc2ccccc2c1=O

>  <ligand_conf_name>  (1) 
MOL_0_isomer_0_conf_0

>  <ligand_molecule_name>  (1) 
MOL_0_isomer_0

$$$$
