MOL_0_isomer_0_conf_0
     RDKit          3D

 42 45  0  0  0  0  0  0  0  0999 V2000
    3.7957   -1.5643    3.2700 O   0  0  0  0  0  0  0  0  0  0  0  0
    2.9163   -2.4018    2.6297 C   0  0  0  0  0  0  0  0  0  0  0  0
    2.7382   -3.6636    3.1922 C   0  0  0  0  0  0  0  0  0  0  0  0
    1.8800   -4.5776    2.5864 C   0  0  0  0  0  0  0  0  0  0  0  0
    1.7442   -5.7829    3.2165 O   0  0  0  0  0  0  0  0  0  0  0  0
    1.2113   -4.2583    1.3987 C   0  0  0  0  0  0  0  0  0  0  0  0
    0.2826   -5.2080    0.6836 C   0  0  0  0  0  0  0  0  0  0  0  0
   -1.1323   -5.1423    1.2390 C   0  0  0  0  0  0  0  0  0  0  0  0
    1.3999   -2.9724    0.8531 C   0  0  0  0  0  0  0  0  0  0  0  0
    2.2289   -2.0192    1.4666 C   0  0  0  0  0  0  0  0  0  0  0  0
    2.3745   -0.6676    0.9007 C   0  0  0  0  0  0  0  0  0  0  0  0
    3.5275    0.0114    1.0929 N   0  0  0  0  0  0  0  0  0  0  0  0
    3.3300    1.1688    0.4321 N   0  0  0  0  0  0  0  0  0  0  0  0
    2.0985    1.2882   -0.1195 C   0  0  0  0  0  0  0  0  0  0  0  0
    1.7264    2.5899   -0.8593 C   0  0  0  0  0  0  0  0  0  0  0  0
    0.5748    2.6930   -1.3633 O   0  0  0  0  0  0  0  0  0  0  0  0
    2.6649    3.4434   -0.8823 O   0  0  0  0  0  1  0  0  0  0  0  0
    1.4240    0.1235    0.1627 C   0  0  0  0  0  0  0  0  0  0  0  0
    0.0408   -0.1483   -0.1801 C   0  0  0  0  0  0  0  0  0  0  0  0
   -0.9068   -0.3315    0.8526 C   0  0  0  0  0  0  0  0  0  0  0  0
   -2.2348   -0.6552    0.5584 C   0  0  0  0  0  0  0  0  0  0  0  0
   -2.5790   -0.7863   -0.7691 C   0  0  0  0  0  0  0  0  0  0  0  0
   -1.6611   -0.6083   -1.7798 C   0  0  0  0  0  0  0  0  0  0  0  0
   -0.3456   -0.2883   -1.5200 C   0  0  0  0  0  0  0  0  0  0  0  0
   -2.2077   -0.7967   -3.0123 O   0  0  0  0  0  0  0  0  0  0  0  0
   -3.5869   -1.0125   -2.6621 C   0  0  0  0  0  0  0  0  0  0  0  0
   -3.8171   -1.0989   -1.2406 O   0  0  0  0  0  0  0  0  0  0  0  0
    3.9237   -0.8000    2.6579 H   0  0  0  0  0  0  0  0  0  0  0  0
    3.2688   -3.9287    4.1011 H   0  0  0  0  0  0  0  0  0  0  0  0
    1.0275   -6.2797    2.7960 H   0  0  0  0  0  0  0  0  0  0  0  0
    0.6688   -6.2320    0.7431 H   0  0  0  0  0  0  0  0  0  0  0  0
    0.2614   -4.9699   -0.3875 H   0  0  0  0  0  0  0  0  0  0  0  0
   -1.5512   -4.1353    1.1367 H   0  0  0  0  0  0  0  0  0  0  0  0
   -1.1593   -5.4098    2.3005 H   0  0  0  0  0  0  0  0  0  0  0  0
   -1.7833   -5.8362    0.6980 H   0  0  0  0  0  0  0  0  0  0  0  0
    0.8919   -2.7216   -0.0757 H   0  0  0  0  0  0  0  0  0  0  0  0
    4.0564    1.8789    0.3925 H   0  0  0  0  0  0  0  0  0  0  0  0
   -0.6032   -0.2114    1.8904 H   0  0  0  0  0  0  0  0  0  0  0  0
   -2.9666   -0.7885    1.3452 H   0  0  0  0  0  0  0  0  0  0  0  0
    0.3589   -0.1237   -2.3279 H   0  0  0  0  0  0  0  0  0  0  0  0
   -4.1881   -0.1894   -3.0669 H   0  0  0  0  0  0  0  0  0  0  0  0
   -3.9211   -1.9482   -3.1244 H   0  0  0  0  0  0  0  0  0  0  0  0
 28  1  1  0
  1  2  1  0
  2  3  2  0
  3 29  1  0
  3  4  1  0
  4  5  1  0
  5 30  1  0
  4  6  2  0
  6  7  1  0
  7 31  1  0
  7 32  1  0
  7  8  1  0
  8 33  1  0
  8 34  1  0
  8 35  1  0
  6  9  1  0
  9 36  1  0
  2 10  1  0
  9 10  2  0
 10 11  1  0
 11 12  2  0
 12 13  1  0
 13 37  1  0
 13 14  1  0
 14 15  1  0
 15 16  2  0
 15 17  1  0
 11 18  1  0
 14 18  2  0
 18 19  1  0
 19 20  2  0
 20 38  1  0
 20 21  1  0
 21 39  1  0
 21 22  2  0
 22 23  1  0
 19 24  1  0
 23 24  2  0
 24 40  1  0
 23 25  1  0
 25 26  1  0
 26 41  1  0
 26 42  1  0
 22 27  1  0
 26 27  1  0
M  CHG  1  17  -1
M  END
>  <conformer_energy>  (1) 
11.02

>  <ligand_smiles>  (1) 
CCc1cc(-c2n[nH]c(C(=O)[O-])c2-c2ccc3c(c2)OCO3)c(O)cc1O

>  <ligand_conf_name>  (1) 
MOL_0_isomer_0_conf_0

>  <ligand_molecule_name>  (1) 
MOL_0_isomer_0

$$$$
