MOL_0_isomer_0_conf_0
     RDKit          3D

 41 44  0  0  0  0  0  0  0  0999 V2000
    5.6064   -0.4495    2.6651 C   0  0  0  0  0  0  0  0  0  0  0  0
    6.0520   -0.0879    3.9095 N   0  0  0  0  0  0  0  0  0  0  0  0
    5.1516    0.7614    4.3527 C   0  0  0  0  0  0  0  0  0  0  0  0
    5.0674    1.4621    5.5723 C   0  0  0  0  0  0  0  0  0  0  0  0
    4.0373    2.2892    5.7812 C   0  0  0  0  0  0  0  0  0  0  0  0
    3.0075    2.4484    4.7047 C   0  0  0  0  0  0  0  0  0  0  0  0
    1.9558    3.2990    4.9424 N   0  0  0  0  0  0  0  0  0  0  0  0
    0.8510    3.5044    4.0315 C   0  0  0  0  0  0  0  0  0  0  0  0
   -0.1862    2.4516    4.2630 C   0  0  0  0  0  0  0  0  0  0  0  0
   -1.1483    2.5428    5.4214 C   0  0  0  0  0  0  0  0  0  0  0  0
   -1.6445    2.7435    4.0155 C   0  0  0  0  0  0  0  0  0  0  0  0
    3.0741    1.8128    3.5674 N   0  0  0  0  0  0  0  0  0  0  0  0
    4.1402    0.9730    3.4318 N   0  0  0  0  0  0  0  0  0  0  0  0
    4.4156    0.1764    2.3319 C   0  0  0  0  0  0  0  0  0  0  0  0
    3.6013    0.0813    1.1177 C   0  0  0  0  0  0  0  0  0  0  0  0
    4.2211   -0.0408   -0.1334 C   0  0  0  0  0  0  0  0  0  0  0  0
    3.4621   -0.1388   -1.3016 C   0  0  0  0  0  0  0  0  0  0  0  0
    2.0684   -0.1189   -1.2366 C   0  0  0  0  0  0  0  0  0  0  0  0
    1.4280   -0.0039    0.0018 C   0  0  0  0  0  0  0  0  0  0  0  0
   -0.0611    0.0239    0.1271 C   0  0  0  0  0  0  0  0  0  0  0  0
   -0.5885    0.1257    1.2330 O   0  0  0  0  0  0  0  0  0  0  0  0
   -0.8983   -0.0739   -1.1217 C   0  0  0  0  0  0  0  0  0  0  0  0
    2.1996    0.0893    1.1702 C   0  0  0  0  0  0  0  0  0  0  0  0
    6.1625   -1.1589    2.0654 H   0  0  0  0  0  0  0  0  0  0  0  0
    5.8408    1.3122    6.3157 H   0  0  0  0  0  0  0  0  0  0  0  0
    3.9242    2.8493    6.6990 H   0  0  0  0  0  0  0  0  0  0  0  0
    1.8615    3.7406    5.8466 H   0  0  0  0  0  0  0  0  0  0  0  0
    1.1818    3.4922    2.9869 H   0  0  0  0  0  0  0  0  0  0  0  0
    0.4337    4.5015    4.2140 H   0  0  0  0  0  0  0  0  0  0  0  0
    0.1704    1.4686    3.9713 H   0  0  0  0  0  0  0  0  0  0  0  0
   -1.1032    3.4085    6.0710 H   0  0  0  0  0  0  0  0  0  0  0  0
   -1.4142    1.6206    5.9259 H   0  0  0  0  0  0  0  0  0  0  0  0
   -2.2373    1.9553    3.5628 H   0  0  0  0  0  0  0  0  0  0  0  0
   -1.9346    3.7428    3.7137 H   0  0  0  0  0  0  0  0  0  0  0  0
    5.3064   -0.0462   -0.2127 H   0  0  0  0  0  0  0  0  0  0  0  0
    3.9615   -0.2264   -2.2636 H   0  0  0  0  0  0  0  0  0  0  0  0
    1.5095   -0.1939   -2.1644 H   0  0  0  0  0  0  0  0  0  0  0  0
   -0.6915    0.7706   -1.7841 H   0  0  0  0  0  0  0  0  0  0  0  0
   -1.9575   -0.0372   -0.8478 H   0  0  0  0  0  0  0  0  0  0  0  0
   -0.7134   -1.0243   -1.6289 H   0  0  0  0  0  0  0  0  0  0  0  0
    1.6938    0.1666    2.1317 H   0  0  0  0  0  0  0  0  0  0  0  0
 24  1  1  0
  1  2  1  0
  2  3  2  0
  3  4  1  0
  4 25  1  0
  4  5  2  0
  5 26  1  0
  5  6  1  0
  6  7  1  0
  7 27  1  0
  7  8  1  0
  8 28  1  0
  8 29  1  0
  8  9  1  0
  9 30  1  0
  9 10  1  0
 10 31  1  0
 10 32  1  0
  9 11  1  0
 10 11  1  0
 11 33  1  0
 11 34  1  0
  6 12  2  0
  3 13  1  0
 12 13  1  0
  1 14  2  0
 13 14  1  0
 14 15  1  0
 15 16  2  0
 16 35  1  0
 16 17  1  0
 17 36  1  0
 17 18  2  0
 18 37  1  0
 18 19  1  0
 19 20  1  0
 20 21  2  0
 20 22  1  0
 22 38  1  0
 22 39  1  0
 22 40  1  0
 15 23  1  0
 19 23  2  0
 23 41  1  0
M  END
>  <conformer_energy>  (1) 
25.64

>  <ligand_smiles>  (1) 
CC(=O)c1cccc(-c2cnc3ccc(NCC4CC4)nn23)c1

>  <ligand_conf_name>  (1) 
MOL_0_isomer_0_conf_0

>  <ligand_molecule_name>  (1) 
MOL_0_isomer_0

$$$$
