MOL_0_isomer_0_conf_0
     RDKit          3D

 35 37  0  0  0  0  0  0  0  0999 V2000
    0.6514    1.9335   -2.4065 O   0  0  0  0  0  0  0  0  0  0  0  0
    1.7248    1.0423   -2.1789 C   0  0  1  0  0  0  0  0  0  0  0  0
    3.0140    1.8159   -2.3390 C   0  0  0  0  0  0  0  0  0  0  0  0
    4.0254    0.9795   -1.5815 C   0  0  2  0  0  0  0  0  0  0  0  0
    4.8968    0.2073   -2.4535 N   0  0  0  0  0  0  0  0  0  0  0  0
    4.7949   -1.1237   -2.7776 C   0  0  0  0  0  0  0  0  0  0  0  0
    5.7509   -1.5130   -3.6035 N   0  0  0  0  0  0  0  0  0  0  0  0
    6.4915   -0.3796   -3.8163 C   0  0  0  0  0  0  0  0  0  0  0  0
    7.6630   -0.1585   -4.6344 C   0  0  0  0  0  0  0  0  0  0  0  0
    8.2469   -1.0002   -5.3132 O   0  0  0  0  0  0  0  0  0  0  0  0
    8.1002    1.1593   -4.5852 N   0  0  0  0  0  0  0  0  0  0  0  0
    7.5023    2.1549   -3.8397 C   0  0  0  0  0  0  0  0  0  0  0  0
    8.0602    3.3828   -3.9116 N   0  0  0  0  0  0  0  0  0  0  0  0
    6.4515    1.9681   -3.0902 N   0  0  0  0  0  0  0  0  0  0  0  0
    5.9896    0.6945   -3.1174 C   0  0  0  0  0  0  0  0  0  0  0  0
    3.3136    0.0870   -0.7111 O   0  0  0  0  0  0  0  0  0  0  0  0
    1.8999    0.4466   -0.7787 C   0  0  2  0  0  0  0  0  0  0  0  0
    1.0692   -0.8108   -0.5194 C   0  0  0  0  0  0  0  0  0  0  0  0
   -0.3260   -0.6413   -0.6294 O   0  0  0  0  0  0  0  0  0  0  0  0
   -1.0187    0.4539    0.3722 P   0  0  0  0  0  5  0  0  0  0  0  0
   -2.4874    0.0794    0.3594 O   0  0  0  0  0  0  0  0  0  0  0  0
   -0.6877    1.7682   -0.3224 O   0  0  0  0  0  1  0  0  0  0  0  0
   -0.2990    0.2566    1.6950 O   0  0  0  0  0  1  0  0  0  0  0  0
    0.0396    1.8719   -1.6021 H   0  0  0  0  0  0  0  0  0  0  0  0
    1.6794    0.2466   -2.9319 H   0  0  0  0  0  0  0  0  0  0  0  0
    2.9194    2.8026   -1.8662 H   0  0  0  0  0  0  0  0  0  0  0  0
    3.2660    2.0006   -3.3887 H   0  0  0  0  0  0  0  0  0  0  0  0
    4.6764    1.6065   -0.9614 H   0  0  0  0  0  0  0  0  0  0  0  0
    4.0075   -1.7531   -2.3800 H   0  0  0  0  0  0  0  0  0  0  0  0
    8.9096    1.3589   -5.1433 H   0  0  0  0  0  0  0  0  0  0  0  0
    7.6121    4.1176   -3.3766 H   0  0  0  0  0  0  0  0  0  0  0  0
    8.8548    3.6129   -4.4836 H   0  0  0  0  0  0  0  0  0  0  0  0
    1.7209    1.2013   -0.0055 H   0  0  0  0  0  0  0  0  0  0  0  0
    1.3171   -1.2337    0.4613 H   0  0  0  0  0  0  0  0  0  0  0  0
    1.3596   -1.5874   -1.2373 H   0  0  0  0  0  0  0  0  0  0  0  0
 24  1  1  0
  1  2  1  0
  2 25  1  6
  2  3  1  0
  3 26  1  0
  3 27  1  0
  3  4  1  0
  4 28  1  1
  4  5  1  0
  5  6  1  0
  6 29  1  0
  6  7  2  0
  7  8  1  0
  8  9  1  0
  9 10  2  0
  9 11  1  0
 11 30  1  0
 11 12  1  0
 12 13  1  0
 13 31  1  0
 13 32  1  0
 12 14  2  0
  8 15  2  0
  5 15  1  0
 14 15  1  0
  4 16  1  0
  2 17  1  0
 16 17  1  0
 17 33  1  1
 17 18  1  0
 18 34  1  0
 18 35  1  0
 18 19  1  0
 19 20  1  0
 20 21  2  0
 20 22  1  0
 20 23  1  0
M  CHG  2  22  -1  23  -1
M  END
>  <conformer_energy>  (1) 
-114.81

>  <ligand_smiles>  (1) 
Nc1nc2c(ncn2[C@H]2C[C@H](O)[C@@H](COP(=O)([O-])[O-])O2)c(=O)[nH]1

>  <ligand_conf_name>  (1) 
MOL_0_isomer_0_conf_0

>  <ligand_molecule_name>  (1) 
MOL_0_isomer_0

$$$$
