MOL_0_isomer_0_conf_0
     RDKit          3D

 38 40  0  0  0  0  0  0  0  0999 V2000
    1.3569   -0.9978    2.2816 C   0  0  0  0  0  0  0  0  0  0  0  0
    2.0377   -1.5351    3.2545 N   0  0  0  0  0  0  0  0  0  0  0  0
    1.2910   -2.1804    4.2187 N   0  0  0  0  0  0  0  0  0  0  0  0
    1.5267   -1.9642    5.5572 C   0  0  0  0  0  0  0  0  0  0  0  0
    2.4473   -1.1380    6.0245 N   0  0  0  0  0  0  0  0  0  0  0  0
    2.4591   -1.0957    7.4063 C   0  0  0  0  0  0  0  0  0  0  0  0
    3.4373   -0.2733    8.1089 C   0  0  0  0  0  0  0  0  0  0  0  0
    4.7518   -0.2706    7.6049 C   0  0  0  0  0  0  0  0  0  0  0  0
    5.7610    0.4776    8.2150 C   0  0  0  0  0  0  0  0  0  0  0  0
    5.4713    1.2450    9.3379 C   0  0  0  0  0  0  0  0  0  0  0  0
    4.1707    1.2711    9.8412 C   0  0  0  0  0  0  0  0  0  0  0  0
    3.1533    0.5226    9.2306 C   0  0  0  0  0  0  0  0  0  0  0  0
    1.5682    0.6848    9.9091 Cl  0  0  0  0  0  0  0  0  0  0  0  0
    1.5632   -1.9468    8.0129 C   0  0  0  0  0  0  0  0  0  0  0  0
    0.6325   -2.7533    6.8284 S   0  0  0  0  0  0  0  0  0  0  0  0
    0.3646   -3.2248    3.7812 C   0  0  0  0  0  0  0  0  0  0  0  0
    2.0244   -0.2918    1.1630 C   0  0  0  0  0  0  0  0  0  0  0  0
    3.3535    0.1267    1.3593 C   0  0  0  0  0  0  0  0  0  0  0  0
    4.0596    0.7682    0.3412 C   0  0  0  0  0  0  0  0  0  0  0  0
    3.4483    0.9889   -0.8877 C   0  0  0  0  0  0  0  0  0  0  0  0
    2.1321    0.5716   -1.0919 C   0  0  0  0  0  0  0  0  0  0  0  0
    1.3936   -0.0667   -0.0729 C   0  0  0  0  0  0  0  0  0  0  0  0
   -0.0135   -0.5013   -0.3839 C   0  0  0  0  0  0  0  0  0  0  0  0
   -0.8973   -0.3217    0.5080 O   0  0  0  0  0  0  0  0  0  0  0  0
   -0.2120   -0.9977   -1.5365 O   0  0  0  0  0  1  0  0  0  0  0  0
    0.2595   -1.0608    2.2775 H   0  0  0  0  0  0  0  0  0  0  0  0
    4.9889   -0.8565    6.7162 H   0  0  0  0  0  0  0  0  0  0  0  0
    6.7667    0.4637    7.8027 H   0  0  0  0  0  0  0  0  0  0  0  0
    6.2517    1.8345    9.8115 H   0  0  0  0  0  0  0  0  0  0  0  0
    3.9489    1.8910   10.7065 H   0  0  0  0  0  0  0  0  0  0  0  0
    1.4045   -2.1367    9.0636 H   0  0  0  0  0  0  0  0  0  0  0  0
    0.4348   -3.4113    2.7033 H   0  0  0  0  0  0  0  0  0  0  0  0
   -0.6695   -2.9400    4.0030 H   0  0  0  0  0  0  0  0  0  0  0  0
    0.5885   -4.1814    4.2669 H   0  0  0  0  0  0  0  0  0  0  0  0
    3.8408   -0.0485    2.3164 H   0  0  0  0  0  0  0  0  0  0  0  0
    5.0836    1.0860    0.5093 H   0  0  0  0  0  0  0  0  0  0  0  0
    3.9893    1.4781   -1.6918 H   0  0  0  0  0  0  0  0  0  0  0  0
    1.6574    0.7317   -2.0599 H   0  0  0  0  0  0  0  0  0  0  0  0
 26  1  1  0
  1  2  2  0
  2  3  1  0
  3  4  1  0
  4  5  2  0
  5  6  1  0
  6  7  1  0
  7  8  2  0
  8 27  1  0
  8  9  1  0
  9 28  1  0
  9 10  2  0
 10 29  1  0
 10 11  1  0
 11 30  1  0
  7 12  1  0
 11 12  2  0
 12 13  1  0
  6 14  2  0
 14 31  1  0
  4 15  1  0
 14 15  1  0
  3 16  1  0
 16 32  1  0
 16 33  1  0
 16 34  1  0
  1 17  1  0
 17 18  2  0
 18 35  1  0
 18 19  1  0
 19 36  1  0
 19 20  2  0
 20 37  1  0
 20 21  1  0
 21 38  1  0
 17 22  1  0
 21 22  2  0
 22 23  1  0
 23 24  2  0
 23 25  1  0
M  CHG  1  25  -1
M  END
>  <conformer_energy>  (1) 
94.62

>  <ligand_smiles>  (1) 
CN(/N=C/c1ccccc1C(=O)[O-])c1nc(-c2ccccc2Cl)cs1

>  <ligand_conf_name>  (1) 
MOL_0_isomer_0_conf_0

>  <ligand_molecule_name>  (1) 
MOL_0_isomer_0

$$$$
