MOL_0_isomer_0_conf_0
     RDKit          3D

 73 75  0  0  0  0  0  0  0  0999 V2000
    2.8181    3.2481    3.8939 C   0  0  0  0  0  0  0  0  0  0  0  0
    4.3620    2.5440    3.6973 S   0  0  0  0  0  0  0  0  0  0  0  0
    3.7233    0.9537    3.7820 C   0  0  0  0  0  0  0  0  0  0  0  0
    4.6513   -0.2239    3.6598 C   0  0  2  0  0  0  0  0  0  0  0  0
    4.0203   -1.2716    2.7081 C   0  0  0  0  0  0  0  0  0  0  0  0
    3.4500   -2.2808    3.1258 O   0  0  0  0  0  0  0  0  0  0  0  0
    4.1162   -0.9682    1.3719 N   0  0  0  0  0  0  0  0  0  0  0  0
    3.5127   -1.7770    0.3177 C   0  0  2  0  0  0  0  0  0  0  0  0
    4.2305   -1.4388   -1.0033 C   0  0  0  0  0  0  0  0  0  0  0  0
    4.9851   -0.4701   -1.0941 O   0  0  0  0  0  0  0  0  0  0  0  0
    3.9528   -2.2850   -2.0521 N   0  0  0  0  0  0  0  0  0  0  0  0
    4.5439   -2.0853   -3.3522 C   0  0  0  0  0  0  0  0  0  0  0  0
    1.9970   -1.5558    0.2137 C   0  0  0  0  0  0  0  0  0  0  0  0
    1.6092   -0.1014   -0.0852 C   0  0  0  0  0  0  0  0  0  0  0  0
    0.1130    0.0552   -0.1997 C   0  0  0  0  0  0  0  0  0  0  0  0
   -0.6747    0.2197    0.9478 C   0  0  0  0  0  0  0  0  0  0  0  0
   -2.0603    0.3481    0.8419 C   0  0  0  0  0  0  0  0  0  0  0  0
   -2.6708    0.3105   -0.4101 C   0  0  0  0  0  0  0  0  0  0  0  0
   -1.8971    0.1440   -1.5572 C   0  0  0  0  0  0  0  0  0  0  0  0
   -0.5114    0.0146   -1.4535 C   0  0  0  0  0  0  0  0  0  0  0  0
    4.8005   -0.8077    4.9889 N   0  0  0  0  0  0  0  0  0  0  0  0
    5.8803   -1.5871    5.2941 C   0  0  0  0  0  0  0  0  0  0  0  0
    6.8381   -1.7675    4.5440 O   0  0  0  0  0  0  0  0  0  0  0  0
    5.8468   -2.2645    6.6613 C   0  0  0  0  0  0  0  0  0  0  0  0
    6.8727   -3.3513    6.7162 N   0  0  0  0  0  4  0  0  0  0  0  0
    7.0733   -3.9972    8.0326 C   0  0  0  0  0  0  0  0  0  0  0  0
    8.0398   -5.1477    7.9633 C   0  0  0  0  0  0  0  0  0  0  0  0
    9.1361   -5.1954    8.8388 C   0  0  0  0  0  0  0  0  0  0  0  0
   10.0277   -6.2714    8.8074 C   0  0  0  0  0  0  0  0  0  0  0  0
    9.8324   -7.3133    7.9045 C   0  0  0  0  0  0  0  0  0  0  0  0
   10.6264   -8.4172    7.7674 O   0  0  0  0  0  0  0  0  0  0  0  0
   11.7286   -8.5429    8.6598 C   0  0  0  0  0  0  0  0  0  0  0  0
    8.7402   -7.2737    7.0308 C   0  0  0  0  0  0  0  0  0  0  0  0
    7.8408   -6.2054    7.0555 C   0  0  0  0  0  0  0  0  0  0  0  0
    6.7527   -6.0734    6.2265 O   0  0  0  0  0  0  0  0  0  0  0  0
    6.4296   -7.2039    5.4123 C   0  0  0  0  0  0  0  0  0  0  0  0
    2.3515    0.9751    3.9712 C   0  0  0  0  0  0  0  0  0  0  0  0
    1.8306    2.2995    4.0290 C   0  0  0  0  0  0  0  0  0  0  0  0
    2.7067    4.3246    3.8965 H   0  0  0  0  0  0  0  0  0  0  0  0
    5.6363    0.0541    3.2671 H   0  0  0  0  0  0  0  0  0  0  0  0
    4.6465   -0.1567    1.0569 H   0  0  0  0  0  0  0  0  0  0  0  0
    3.7089   -2.8309    0.5502 H   0  0  0  0  0  0  0  0  0  0  0  0
    3.3545   -3.0898   -1.9136 H   0  0  0  0  0  0  0  0  0  0  0  0
    4.5335   -1.0236   -3.6141 H   0  0  0  0  0  0  0  0  0  0  0  0
    3.9713   -2.6564   -4.0868 H   0  0  0  0  0  0  0  0  0  0  0  0
    5.5761   -2.4446   -3.3256 H   0  0  0  0  0  0  0  0  0  0  0  0
    1.5850   -2.2079   -0.5671 H   0  0  0  0  0  0  0  0  0  0  0  0
    1.5232   -1.8695    1.1529 H   0  0  0  0  0  0  0  0  0  0  0  0
    1.9765    0.5684    0.7017 H   0  0  0  0  0  0  0  0  0  0  0  0
    2.0777    0.2408   -1.0159 H   0  0  0  0  0  0  0  0  0  0  0  0
   -0.2133    0.2509    1.9311 H   0  0  0  0  0  0  0  0  0  0  0  0
   -2.6655    0.4782    1.7352 H   0  0  0  0  0  0  0  0  0  0  0  0
   -3.7497    0.4134   -0.4932 H   0  0  0  0  0  0  0  0  0  0  0  0
   -2.3742    0.1171   -2.5338 H   0  0  0  0  0  0  0  0  0  0  0  0
    0.0770   -0.1132   -2.3594 H   0  0  0  0  0  0  0  0  0  0  0  0
    3.9878   -0.7647    5.5913 H   0  0  0  0  0  0  0  0  0  0  0  0
    6.0930   -1.5308    7.4340 H   0  0  0  0  0  0  0  0  0  0  0  0
    4.8701   -2.7192    6.8470 H   0  0  0  0  0  0  0  0  0  0  0  0
    7.7610   -2.9878    6.3386 H   0  0  0  0  0  0  0  0  0  0  0  0
    6.6158   -4.0911    6.0412 H   0  0  0  0  0  0  0  0  0  0  0  0
    7.4295   -3.2157    8.7127 H   0  0  0  0  0  0  0  0  0  0  0  0
    6.0975   -4.3505    8.3846 H   0  0  0  0  0  0  0  0  0  0  0  0
    9.3143   -4.4010    9.5624 H   0  0  0  0  0  0  0  0  0  0  0  0
   10.8636   -6.2683    9.5012 H   0  0  0  0  0  0  0  0  0  0  0  0
   12.2458   -9.4782    8.4238 H   0  0  0  0  0  0  0  0  0  0  0  0
   11.3877   -8.6021    9.6990 H   0  0  0  0  0  0  0  0  0  0  0  0
   12.4414   -7.7228    8.5235 H   0  0  0  0  0  0  0  0  0  0  0  0
    8.6287   -8.1032    6.3377 H   0  0  0  0  0  0  0  0  0  0  0  0
    5.5071   -6.9696    4.8723 H   0  0  0  0  0  0  0  0  0  0  0  0
    6.2422   -8.0913    6.0256 H   0  0  0  0  0  0  0  0  0  0  0  0
    7.2128   -7.3873    4.6696 H   0  0  0  0  0  0  0  0  0  0  0  0
    1.7395    0.0831    4.0487 H   0  0  0  0  0  0  0  0  0  0  0  0
    0.7832    2.5477    4.1583 H   0  0  0  0  0  0  0  0  0  0  0  0
 39  1  1  0
  1  2  1  0
  2  3  1  0
  3  4  1  0
  4 40  1  6
  4  5  1  0
  5  6  2  0
  5  7  1  0
  7 41  1  0
  7  8  1  0
  8 42  1  1
  8  9  1  0
  9 10  2  0
  9 11  1  0
 11 43  1  0
 11 12  1  0
 12 44  1  0
 12 45  1  0
 12 46  1  0
  8 13  1  0
 13 47  1  0
 13 48  1  0
 13 14  1  0
 14 49  1  0
 14 50  1  0
 14 15  1  0
 15 16  2  0
 16 51  1  0
 16 17  1  0
 17 52  1  0
 17 18  2  0
 18 53  1  0
 18 19  1  0
 19 54  1  0
 15 20  1  0
 19 20  2  0
 20 55  1  0
  4 21  1  0
 21 56  1  0
 21 22  1  0
 22 23  2  0
 22 24  1  0
 24 57  1  0
 24 58  1  0
 24 25  1  0
 25 59  1  0
 25 60  1  0
 25 26  1  0
 26 61  1  0
 26 62  1  0
 26 27  1  0
 27 28  2  0
 28 63  1  0
 28 29  1  0
 29 64  1  0
 29 30  2  0
 30 31  1  0
 31 32  1  0
 32 65  1  0
 32 66  1  0
 32 67  1  0
 30 33  1  0
 33 68  1  0
 27 34  1  0
 33 34  2  0
 34 35  1  0
 35 36  1  0
 36 69  1  0
 36 70  1  0
 36 71  1  0
  3 37  2  0
 37 72  1  0
  1 38  2  0
 37 38  1  0
 38 73  1  0
M  CHG  1  25   1
M  END
>  <conformer_energy>  (1) 
66.10

>  <ligand_smiles>  (1) 
CNC(=O)[C@H](CCc1ccccc1)NC(=O)[C@H](NC(=O)C[NH2+]Cc1ccc(OC)cc1OC)c1cccs1

>  <ligand_conf_name>  (1) 
MOL_0_isomer_0_conf_0

>  <ligand_molecule_name>  (1) 
MOL_0_isomer_0

$$$$
