MOL_0_isomer_0_conf_0
     RDKit          3D

 58 62  0  0  0  0  0  0  0  0999 V2000
    1.8974    6.8202   -2.6898 C   0  0  0  0  0  0  0  0  0  0  0  0
    1.7794    6.1714   -1.5068 N   0  0  0  0  0  0  0  0  0  0  0  0
    2.8655    5.3894   -1.2151 C   0  0  0  0  0  0  0  0  0  0  0  0
    3.0917    4.6260   -0.0292 C   0  0  0  0  0  0  0  0  0  0  0  0
    2.2321    4.6192    1.0178 N   0  0  0  0  0  0  0  0  0  0  0  0
    4.2783    3.9106   -0.0660 C   0  0  0  0  0  0  0  0  0  0  0  0
    4.8009    3.0048    0.9504 C   0  0  0  0  0  0  0  0  0  0  0  0
    4.2073    2.7897    2.0071 O   0  0  0  0  0  0  0  0  0  0  0  0
    5.9919    2.3711    0.6426 N   0  0  0  0  0  0  0  0  0  0  0  0
    6.4767    1.2232    1.3922 C   0  0  0  0  0  0  0  0  0  0  0  0
    6.1266   -0.1128    0.7086 C   0  0  0  0  0  0  0  0  0  0  0  0
    4.6488   -0.2451    0.4208 C   0  0  0  0  0  0  0  0  0  0  0  0
    3.7517   -0.5400    1.4491 C   0  0  0  0  0  0  0  0  0  0  0  0
    2.3772   -0.4478    1.2300 C   0  0  0  0  0  0  0  0  0  0  0  0
    1.8681   -0.0602   -0.0199 C   0  0  0  0  0  0  0  0  0  0  0  0
    0.3848    0.2215   -0.1429 C   0  0  1  0  0  0  0  0  0  0  0  0
    0.1184    1.7023    0.2076 C   0  0  0  0  0  0  0  0  0  0  0  0
   -1.3118    2.1394   -0.1015 C   0  0  2  0  0  0  0  0  0  0  0  0
   -2.3745    1.2431    0.5257 C   0  0  0  0  0  0  0  0  0  0  0  0
   -2.6029    0.1144   -0.4852 C   0  0  0  0  0  0  0  0  0  0  0  0
   -1.6639    0.4123   -1.6519 C   0  0  2  0  0  0  0  0  0  0  0  0
   -0.2565   -0.1730   -1.4873 C   0  0  0  0  0  0  0  0  0  0  0  0
   -1.5294    1.9020   -1.5639 N   0  0  0  0  0  4  0  0  0  0  0  0
    2.7720    0.1689   -1.0635 C   0  0  0  0  0  0  0  0  0  0  0  0
    4.1475    0.0663   -0.8474 C   0  0  0  0  0  0  0  0  0  0  0  0
    5.1238    4.1951   -1.5368 S   0  0  0  0  0  0  0  0  0  0  0  0
    3.9248    5.2536   -2.1047 C   0  0  0  0  0  0  0  0  0  0  0  0
    4.0223    5.8677   -3.3041 N   0  0  0  0  0  0  0  0  0  0  0  0
    2.9743    6.6839   -3.5610 C   0  0  0  0  0  0  0  0  0  0  0  0
    3.0054    7.4607   -4.8423 C   0  0  0  0  0  0  0  0  0  0  0  0
    1.0738    7.4833   -2.9298 H   0  0  0  0  0  0  0  0  0  0  0  0
    2.4587    4.1127    1.8758 H   0  0  0  0  0  0  0  0  0  0  0  0
    1.4787    5.2979    1.0901 H   0  0  0  0  0  0  0  0  0  0  0  0
    6.4685    2.6308   -0.2109 H   0  0  0  0  0  0  0  0  0  0  0  0
    6.0664    1.2485    2.4075 H   0  0  0  0  0  0  0  0  0  0  0  0
    7.5639    1.3210    1.4661 H   0  0  0  0  0  0  0  0  0  0  0  0
    6.4535   -0.9467    1.3411 H   0  0  0  0  0  0  0  0  0  0  0  0
    6.6892   -0.2010   -0.2291 H   0  0  0  0  0  0  0  0  0  0  0  0
    4.1164   -0.7764    2.4470 H   0  0  0  0  0  0  0  0  0  0  0  0
    1.7116   -0.6259    2.0712 H   0  0  0  0  0  0  0  0  0  0  0  0
   -0.1155   -0.3910    0.6193 H   0  0  0  0  0  0  0  0  0  0  0  0
    0.8095    2.3442   -0.3502 H   0  0  0  0  0  0  0  0  0  0  0  0
    0.3277    1.8715    1.2700 H   0  0  0  0  0  0  0  0  0  0  0  0
   -1.4685    3.2012    0.1044 H   0  0  0  0  0  0  0  0  0  0  0  0
   -3.3083    1.8026    0.6637 H   0  0  0  0  0  0  0  0  0  0  0  0
   -2.0788    0.8654    1.5075 H   0  0  0  0  0  0  0  0  0  0  0  0
   -2.4299   -0.8727   -0.0497 H   0  0  0  0  0  0  0  0  0  0  0  0
   -3.6449    0.1397   -0.8231 H   0  0  0  0  0  0  0  0  0  0  0  0
   -2.0951    0.1624   -2.6231 H   0  0  0  0  0  0  0  0  0  0  0  0
    0.3485    0.1702   -2.3311 H   0  0  0  0  0  0  0  0  0  0  0  0
   -0.2957   -1.2638   -1.5641 H   0  0  0  0  0  0  0  0  0  0  0  0
   -0.7593    2.2764   -2.1374 H   0  0  0  0  0  0  0  0  0  0  0  0
   -2.3899    2.3677   -1.8802 H   0  0  0  0  0  0  0  0  0  0  0  0
    2.4431    0.4833   -2.0486 H   0  0  0  0  0  0  0  0  0  0  0  0
    4.8302    0.2963   -1.6618 H   0  0  0  0  0  0  0  0  0  0  0  0
    3.9249    7.2618   -5.3995 H   0  0  0  0  0  0  0  0  0  0  0  0
    2.9600    8.5321   -4.6335 H   0  0  0  0  0  0  0  0  0  0  0  0
    2.1574    7.1842   -5.4734 H   0  0  0  0  0  0  0  0  0  0  0  0
 31  1  1  0
  1  2  2  0
  2  3  1  0
  3  4  1  0
  4  5  1  0
  5 32  1  0
  5 33  1  0
  4  6  2  0
  6  7  1  0
  7  8  2  0
  7  9  1  0
  9 34  1  0
  9 10  1  0
 10 35  1  0
 10 36  1  0
 10 11  1  0
 11 37  1  0
 11 38  1  0
 11 12  1  0
 12 13  2  0
 13 39  1  0
 13 14  1  0
 14 40  1  0
 14 15  2  0
 15 16  1  0
 16 41  1  1
 16 17  1  0
 17 42  1  0
 17 43  1  0
 17 18  1  0
 18 44  1  6
 18 19  1  0
 19 45  1  0
 19 46  1  0
 19 20  1  0
 20 47  1  0
 20 48  1  0
 20 21  1  0
 21 49  1  6
 16 22  1  0
 21 22  1  0
 22 50  1  0
 22 51  1  0
 18 23  1  0
 21 23  1  0
 23 52  1  0
 23 53  1  0
 15 24  1  0
 24 54  1  0
 12 25  1  0
 24 25  2  0
 25 55  1  0
  6 26  1  0
  3 27  2  0
 26 27  1  0
 27 28  1  0
  1 29  1  0
 28 29  2  0
 29 30  1  0
 30 56  1  0
 30 57  1  0
 30 58  1  0
M  CHG  1  23   1
M  END
>  <conformer_energy>  (1) 
90.91

>  <ligand_smiles>  (1) 
Cc1cnc2c(N)c(C(=O)NCCc3ccc([C@@H]4C[C@H]5CC[C@@H](C4)[NH2+]5)cc3)sc2n1

>  <ligand_conf_name>  (1) 
MOL_0_isomer_0_conf_0

>  <ligand_molecule_name>  (1) 
MOL_0_isomer_0

$$$$
