MOL_0_isomer_0_conf_0
     RDKit          3D

 63 70  0  0  0  0  0  0  0  0999 V2000
    0.3963    1.9795   -7.0304 O   0  0  0  0  0  0  0  0  0  0  0  0
    1.5627    1.1998   -7.0748 C   0  0  2  0  0  0  0  0  0  0  0  0
    2.0813    0.9740   -5.6832 C   0  0  0  0  0  0  0  0  0  0  0  0
    3.3276    1.6524   -5.5483 C   0  0  0  0  0  0  0  0  0  0  0  0
    4.0884    1.6987   -4.3725 C   0  0  0  0  0  0  0  0  0  0  0  0
    5.2901    2.2986   -3.8861 C   0  0  0  0  0  0  0  0  0  0  0  0
    6.2700    3.1435   -4.4491 C   0  0  0  0  0  0  0  0  0  0  0  0
    7.3509    3.5795   -3.6766 C   0  0  0  0  0  0  0  0  0  0  0  0
    7.4741    3.1880   -2.3503 C   0  0  0  0  0  0  0  0  0  0  0  0
    6.5233    2.3533   -1.7594 C   0  0  0  0  0  0  0  0  0  0  0  0
    5.4372    1.9193   -2.5409 C   0  0  0  0  0  0  0  0  0  0  0  0
    4.3661    1.1023   -2.2297 N   0  0  0  0  0  0  0  0  0  0  0  0
    3.5598    0.9829   -3.3123 C   0  0  0  0  0  0  0  0  0  0  0  0
    2.2127    0.2177   -3.4324 C   0  0  0  0  0  0  0  0  0  0  0  0
    1.5022    0.2644   -4.6158 C   0  0  0  0  0  0  0  0  0  0  0  0
    0.2869   -0.4276   -4.3810 C   0  0  0  0  0  0  0  0  0  0  0  0
   -0.8458   -0.6795   -5.1863 C   0  0  0  0  0  0  0  0  0  0  0  0
   -1.9470   -1.3519   -4.6581 C   0  0  0  0  0  0  0  0  0  0  0  0
   -1.9391   -1.7644   -3.3359 C   0  0  0  0  0  0  0  0  0  0  0  0
   -0.8314   -1.5271   -2.5157 C   0  0  0  0  0  0  0  0  0  0  0  0
    0.2961   -0.8672   -3.0448 C   0  0  0  0  0  0  0  0  0  0  0  0
    1.5336   -0.5178   -2.4924 N   0  0  0  0  0  0  0  0  0  0  0  0
    2.0239   -0.8396   -1.1340 C   0  0  1  0  0  0  0  0  0  0  0  0
    1.8140   -2.3387   -0.8202 C   0  0  0  0  0  0  0  0  0  0  0  0
    3.4657   -0.7460   -1.0766 O   0  0  0  0  0  0  0  0  0  0  0  0
    4.1092    0.5122   -0.9254 C   0  0  2  0  0  0  0  0  0  0  0  0
    3.4409    1.4810    0.0496 C   0  0  0  0  0  0  0  0  0  0  0  0
    1.9188    1.4824   -0.0053 C   0  0  1  0  0  0  0  0  0  0  0  0
    1.4207    2.3787   -1.1176 N   0  0  0  0  0  4  0  0  0  0  0  0
   -0.0555    2.6087   -1.1934 C   0  0  0  0  0  0  0  0  0  0  0  0
    1.3987    0.0294   -0.0052 C   0  0  1  0  0  0  0  0  0  0  0  0
   -0.0297    0.0086    0.0254 O   0  0  0  0  0  0  0  0  0  0  0  0
   -0.5739   -0.2309    1.3216 C   0  0  0  0  0  0  0  0  0  0  0  0
    3.6112    2.2921   -6.8390 C   0  0  0  0  0  0  0  0  0  0  0  0
    4.5797    2.9607   -7.1331 O   0  0  0  0  0  0  0  0  0  0  0  0
    2.5696    1.9954   -7.6865 N   0  0  0  0  0  0  0  0  0  0  0  0
    0.4209    2.5164   -7.8384 H   0  0  0  0  0  0  0  0  0  0  0  0
    1.4126    0.2743   -7.6373 H   0  0  0  0  0  0  0  0  0  0  0  0
    6.2041    3.4615   -5.4866 H   0  0  0  0  0  0  0  0  0  0  0  0
    8.1036    4.2237   -4.1268 H   0  0  0  0  0  0  0  0  0  0  0  0
    8.3298    3.5286   -1.7703 H   0  0  0  0  0  0  0  0  0  0  0  0
    6.6521    2.0480   -0.7257 H   0  0  0  0  0  0  0  0  0  0  0  0
   -0.8763   -0.3408   -6.2188 H   0  0  0  0  0  0  0  0  0  0  0  0
   -2.8150   -1.5442   -5.2847 H   0  0  0  0  0  0  0  0  0  0  0  0
   -2.8069   -2.2818   -2.9307 H   0  0  0  0  0  0  0  0  0  0  0  0
   -0.8875   -1.8557   -1.4852 H   0  0  0  0  0  0  0  0  0  0  0  0
    2.1337   -2.9656   -1.6615 H   0  0  0  0  0  0  0  0  0  0  0  0
    2.4290   -2.6414    0.0372 H   0  0  0  0  0  0  0  0  0  0  0  0
    0.7853   -2.5972   -0.5690 H   0  0  0  0  0  0  0  0  0  0  0  0
    5.1019    0.2690   -0.5282 H   0  0  0  0  0  0  0  0  0  0  0  0
    3.8417    2.4971   -0.0485 H   0  0  0  0  0  0  0  0  0  0  0  0
    3.7148    1.1491    1.0613 H   0  0  0  0  0  0  0  0  0  0  0  0
    1.5490    1.9802    0.9003 H   0  0  0  0  0  0  0  0  0  0  0  0
    1.7079    2.0663   -2.0543 H   0  0  0  0  0  0  0  0  0  0  0  0
    1.8563    3.3073   -1.0209 H   0  0  0  0  0  0  0  0  0  0  0  0
   -0.4254    2.8384   -0.1919 H   0  0  0  0  0  0  0  0  0  0  0  0
   -0.5309    1.7250   -1.6188 H   0  0  0  0  0  0  0  0  0  0  0  0
   -0.2111    3.4611   -1.8594 H   0  0  0  0  0  0  0  0  0  0  0  0
    1.7687   -0.4055    0.9370 H   0  0  0  0  0  0  0  0  0  0  0  0
   -1.6638   -0.1952    1.2464 H   0  0  0  0  0  0  0  0  0  0  0  0
   -0.2433    0.5404    2.0232 H   0  0  0  0  0  0  0  0  0  0  0  0
   -0.2793   -1.2223    1.6782 H   0  0  0  0  0  0  0  0  0  0  0  0
    2.6038    2.2764   -8.6567 H   0  0  0  0  0  0  0  0  0  0  0  0
 37  1  1  0
  1  2  1  0
  2 38  1  6
  2  3  1  0
  3  4  2  0
  4  5  1  0
  5  6  1  0
  6  7  2  0
  7 39  1  0
  7  8  1  0
  8 40  1  0
  8  9  2  0
  9 41  1  0
  9 10  1  0
 10 42  1  0
  6 11  1  0
 10 11  2  0
 11 12  1  0
  5 13  2  0
 12 13  1  0
 13 14  1  0
  3 15  1  0
 14 15  2  0
 15 16  1  0
 16 17  2  0
 17 43  1  0
 17 18  1  0
 18 44  1  0
 18 19  2  0
 19 45  1  0
 19 20  1  0
 20 46  1  0
 16 21  1  0
 20 21  2  0
 14 22  1  0
 21 22  1  0
 22 23  1  0
 23 24  1  1
 24 47  1  0
 24 48  1  0
 24 49  1  0
 23 25  1  0
 12 26  1  0
 25 26  1  0
 26 50  1  1
 26 27  1  0
 27 51  1  0
 27 52  1  0
 27 28  1  0
 28 53  1  1
 28 29  1  0
 29 54  1  0
 29 55  1  0
 29 30  1  0
 30 56  1  0
 30 57  1  0
 30 58  1  0
 23 31  1  0
 28 31  1  0
 31 59  1  1
 31 32  1  0
 32 33  1  0
 33 60  1  0
 33 61  1  0
 33 62  1  0
  4 34  1  0
 34 35  2  0
  2 36  1  0
 34 36  1  0
 36 63  1  0
M  CHG  1  29   1
M  END
>  <conformer_energy>  (1) 
55.26

>  <ligand_smiles>  (1) 
C[NH2+][C@@H]1C[C@H]2O[C@@](C)([C@@H]1OC)n1c3ccccc3c3c4c(c5c6ccccc6n2c5c31)C(=O)N[C@@H]4O

>  <ligand_conf_name>  (1) 
MOL_0_isomer_0_conf_0

>  <ligand_molecule_name>  (1) 
MOL_0_isomer_0

$$$$
