MOL_0_isomer_0_conf_0
     RDKit          3D

 43 45  0  0  0  0  0  0  0  0999 V2000
   12.6242   -4.8908   -0.3752 C   0  0  0  0  0  0  0  0  0  0  0  0
   13.6935   -4.4356   -1.0622 N   0  0  0  0  0  0  0  0  0  0  0  0
   14.1144   -3.1884   -0.7651 C   0  0  0  0  0  0  0  0  0  0  0  0
   13.5163   -2.3763    0.1869 C   0  0  0  0  0  0  0  0  0  0  0  0
   12.4088   -2.8646    0.8863 C   0  0  0  0  0  0  0  0  0  0  0  0
   11.7311   -2.0242    1.9433 C   0  0  0  0  0  0  0  0  0  0  0  0
   10.2672   -1.7542    1.6814 C   0  0  0  0  0  0  0  0  0  0  0  0
    9.2861   -2.2263    2.5579 C   0  0  0  0  0  0  0  0  0  0  0  0
    7.9323   -1.9698    2.3119 C   0  0  0  0  0  0  0  0  0  0  0  0
    7.5150   -1.2396    1.1921 C   0  0  0  0  0  0  0  0  0  0  0  0
    6.1664   -1.0168    1.0042 N   0  0  0  0  0  0  0  0  0  0  0  0
    5.6068   -0.2903   -0.1151 C   0  0  0  0  0  0  0  0  0  0  0  0
    4.1037   -0.2404    0.0226 C   0  0  0  0  0  0  0  0  0  0  0  0
    3.3022   -1.2384   -0.5444 C   0  0  0  0  0  0  0  0  0  0  0  0
    1.9143   -1.1997   -0.3916 C   0  0  0  0  0  0  0  0  0  0  0  0
    1.3042   -0.1744    0.3346 C   0  0  0  0  0  0  0  0  0  0  0  0
   -0.0590   -0.2577    0.4060 O   0  0  0  0  0  0  0  0  0  0  0  0
   -0.7283    0.7678    1.1286 C   0  0  0  0  0  0  0  0  0  0  0  0
    2.0983    0.8149    0.9142 C   0  0  0  0  0  0  0  0  0  0  0  0
    3.4893    0.7791    0.7628 C   0  0  0  0  0  0  0  0  0  0  0  0
    8.5047   -0.7669    0.3255 C   0  0  0  0  0  0  0  0  0  0  0  0
    9.8622   -1.0171    0.5634 C   0  0  0  0  0  0  0  0  0  0  0  0
   11.9607   -4.1573    0.5961 C   0  0  0  0  0  0  0  0  0  0  0  0
   12.3017   -5.8954   -0.6331 H   0  0  0  0  0  0  0  0  0  0  0  0
   14.9758   -2.8450   -1.3305 H   0  0  0  0  0  0  0  0  0  0  0  0
   13.9117   -1.3834    0.3730 H   0  0  0  0  0  0  0  0  0  0  0  0
   12.2389   -1.0561    2.0463 H   0  0  0  0  0  0  0  0  0  0  0  0
   11.8610   -2.5276    2.9103 H   0  0  0  0  0  0  0  0  0  0  0  0
    9.5609   -2.7987    3.4407 H   0  0  0  0  0  0  0  0  0  0  0  0
    7.1952   -2.3521    3.0141 H   0  0  0  0  0  0  0  0  0  0  0  0
    5.5131   -1.4145    1.6683 H   0  0  0  0  0  0  0  0  0  0  0  0
    5.8701   -0.7745   -1.0636 H   0  0  0  0  0  0  0  0  0  0  0  0
    5.9992    0.7335   -0.1512 H   0  0  0  0  0  0  0  0  0  0  0  0
    3.7537   -2.0543   -1.1049 H   0  0  0  0  0  0  0  0  0  0  0  0
    1.3020   -1.9785   -0.8398 H   0  0  0  0  0  0  0  0  0  0  0  0
   -1.8019    0.5606    1.0860 H   0  0  0  0  0  0  0  0  0  0  0  0
   -0.5602    1.7481    0.6705 H   0  0  0  0  0  0  0  0  0  0  0  0
   -0.4308    0.7668    2.1824 H   0  0  0  0  0  0  0  0  0  0  0  0
    1.6703    1.6257    1.4938 H   0  0  0  0  0  0  0  0  0  0  0  0
    4.0955    1.5517    1.2321 H   0  0  0  0  0  0  0  0  0  0  0  0
    8.2426   -0.1938   -0.5586 H   0  0  0  0  0  0  0  0  0  0  0  0
   10.5997   -0.6350   -0.1390 H   0  0  0  0  0  0  0  0  0  0  0  0
   11.1056   -4.5866    1.1082 H   0  0  0  0  0  0  0  0  0  0  0  0
 24  1  1  0
  1  2  2  0
  2  3  1  0
  3 25  1  0
  3  4  2  0
  4 26  1  0
  4  5  1  0
  5  6  1  0
  6 27  1  0
  6 28  1  0
  6  7  1  0
  7  8  2  0
  8 29  1  0
  8  9  1  0
  9 30  1  0
  9 10  2  0
 10 11  1  0
 11 31  1  0
 11 12  1  0
 12 32  1  0
 12 33  1  0
 12 13  1  0
 13 14  2  0
 14 34  1  0
 14 15  1  0
 15 35  1  0
 15 16  2  0
 16 17  1  0
 17 18  1  0
 18 36  1  0
 18 37  1  0
 18 38  1  0
 16 19  1  0
 19 39  1  0
 13 20  1  0
 19 20  2  0
 20 40  1  0
 10 21  1  0
 21 41  1  0
  7 22  1  0
 21 22  2  0
 22 42  1  0
  1 23  1  0
  5 23  2  0
 23 43  1  0
M  END
>  <conformer_energy>  (1) 
61.09

>  <ligand_smiles>  (1) 
COc1ccc(CNc2ccc(Cc3ccncc3)cc2)cc1

>  <ligand_conf_name>  (1) 
MOL_0_isomer_0_conf_0

>  <ligand_molecule_name>  (1) 
MOL_0_isomer_0

$$$$
