MOL_0_isomer_0_conf_0
     RDKit          3D

 75 78  0  0  0  0  0  0  0  0999 V2000
   11.4764    5.6853   -0.6015 C   0  0  0  0  0  0  0  0  0  0  0  0
   10.6346    4.9542   -1.3441 C   0  0  0  0  0  0  0  0  0  0  0  0
    9.2058    4.9079   -1.1819 C   0  0  0  0  0  0  0  0  0  0  0  0
    8.4313    4.7508   -0.0881 C   0  0  0  0  0  0  0  0  0  0  0  0
    8.8605    4.5701    1.3293 C   0  0  0  0  0  0  0  0  0  0  0  0
    7.0284    4.7273   -0.4637 C   0  0  0  0  0  0  0  0  0  0  0  0
    5.9537    4.5853    0.3230 C   0  0  0  0  0  0  0  0  0  0  0  0
    4.6335    4.5772   -0.1890 C   0  0  0  0  0  0  0  0  0  0  0  0
    3.8529    5.4648   -0.9111 C   0  0  0  0  0  0  0  0  0  0  0  0
    4.2284    6.8353   -1.3626 C   0  0  0  0  0  0  0  0  0  0  0  0
    2.5916    4.8123   -1.1641 C   0  0  0  0  0  0  0  0  0  0  0  0
    1.4510    5.3999   -1.9577 C   0  0  0  0  0  0  0  0  0  0  0  0
    0.5587    6.3119   -1.1261 C   0  0  0  0  0  0  0  0  0  0  0  0
   -0.3087    7.2159   -1.9991 C   0  0  0  0  0  0  0  0  0  0  0  0
   -0.6113    6.7789   -3.1443 O   0  0  0  0  0  0  0  0  0  0  0  0
   -0.6262    8.3176   -1.4635 O   0  0  0  0  0  1  0  0  0  0  0  0
    2.6581    3.5537   -0.5812 C   0  0  0  0  0  0  0  0  0  0  0  0
    1.7621    2.4463   -0.5106 C   0  0  0  0  0  0  0  0  0  0  0  0
    2.1400    1.1803   -0.2453 C   0  0  0  0  0  0  0  0  0  0  0  0
    3.4425    0.7749    0.0024 N   0  0  0  0  0  0  0  0  0  0  0  0
    3.3779   -0.5162    0.1522 C   0  0  0  0  0  0  0  0  0  0  0  0
    4.5133   -1.4073    0.4802 C   0  0  0  0  0  0  0  0  0  0  0  0
    5.7882   -1.0039    0.4526 C   0  0  0  0  0  0  0  0  0  0  0  0
    6.9788   -1.7786    0.7850 C   0  0  0  0  0  0  0  0  0  0  0  0
    6.9994   -3.1485    1.2608 C   0  0  0  0  0  0  0  0  0  0  0  0
    7.7666   -4.1218    0.7525 C   0  0  0  0  0  0  0  0  0  0  0  0
    8.0669   -0.9871    0.6586 C   0  0  0  0  0  0  0  0  0  0  0  0
    9.5074   -1.1976    0.9330 C   0  0  0  0  0  0  0  0  0  0  0  0
    7.5882    0.3412    0.1931 C   0  0  0  0  0  0  0  0  0  0  0  0
    8.2963    1.3046   -0.0293 O   0  0  0  0  0  0  0  0  0  0  0  0
    6.2274    0.2337    0.0941 N   0  0  0  0  0  0  0  0  0  0  0  0
    2.0354   -1.0970    0.0071 C   0  0  0  0  0  0  0  0  0  0  0  0
    1.6817   -2.5314    0.0925 C   0  0  0  0  0  0  0  0  0  0  0  0
    1.2877   -0.0009   -0.1952 C   0  0  0  0  0  0  0  0  0  0  0  0
   -0.2083    0.0129   -0.3583 C   0  0  0  0  0  0  0  0  0  0  0  0
   -0.9523    0.1648    0.9676 C   0  0  0  0  0  0  0  0  0  0  0  0
   -0.9393   -1.1306    1.7769 C   0  0  0  0  0  0  0  0  0  0  0  0
   -1.4665   -2.1318    1.2108 O   0  0  0  0  0  0  0  0  0  0  0  0
   -0.4122   -1.0557    2.9232 O   0  0  0  0  0  1  0  0  0  0  0  0
    3.8720    3.4671    0.0550 N   0  0  0  0  0  0  0  0  0  0  0  0
    7.0077    4.8412   -1.8232 N   0  0  0  0  0  0  0  0  0  0  0  0
    8.2690    4.9415   -2.3498 C   0  0  0  0  0  0  0  0  0  0  0  0
    8.5850    5.0491   -3.5211 O   0  0  0  0  0  0  0  0  0  0  0  0
   11.1289    6.3102    0.2145 H   0  0  0  0  0  0  0  0  0  0  0  0
   12.5399    5.6817   -0.8149 H   0  0  0  0  0  0  0  0  0  0  0  0
   11.0217    4.3745   -2.1807 H   0  0  0  0  0  0  0  0  0  0  0  0
    8.5334    5.4191    1.9394 H   0  0  0  0  0  0  0  0  0  0  0  0
    9.9453    4.4854    1.4318 H   0  0  0  0  0  0  0  0  0  0  0  0
    8.4326    3.6538    1.7509 H   0  0  0  0  0  0  0  0  0  0  0  0
    6.0736    4.4332    1.3901 H   0  0  0  0  0  0  0  0  0  0  0  0
    4.4184    6.8387   -2.4400 H   0  0  0  0  0  0  0  0  0  0  0  0
    5.1280    7.1946   -0.8543 H   0  0  0  0  0  0  0  0  0  0  0  0
    3.4268    7.5476   -1.1502 H   0  0  0  0  0  0  0  0  0  0  0  0
    0.8512    4.5915   -2.3927 H   0  0  0  0  0  0  0  0  0  0  0  0
    1.8729    5.9482   -2.8106 H   0  0  0  0  0  0  0  0  0  0  0  0
    1.1607    6.9439   -0.4641 H   0  0  0  0  0  0  0  0  0  0  0  0
   -0.0973    5.7131   -0.4837 H   0  0  0  0  0  0  0  0  0  0  0  0
    0.7196    2.6651   -0.7202 H   0  0  0  0  0  0  0  0  0  0  0  0
    4.2651   -2.4185    0.7779 H   0  0  0  0  0  0  0  0  0  0  0  0
    6.2972   -3.3852    2.0590 H   0  0  0  0  0  0  0  0  0  0  0  0
    8.4508   -3.9428   -0.0715 H   0  0  0  0  0  0  0  0  0  0  0  0
    7.7060   -5.1314    1.1462 H   0  0  0  0  0  0  0  0  0  0  0  0
    9.8890   -0.4150    1.5984 H   0  0  0  0  0  0  0  0  0  0  0  0
    9.7048   -2.1564    1.4206 H   0  0  0  0  0  0  0  0  0  0  0  0
   10.0818   -1.1669    0.0010 H   0  0  0  0  0  0  0  0  0  0  0  0
    5.6067    0.9792   -0.2062 H   0  0  0  0  0  0  0  0  0  0  0  0
    2.3235   -3.1249   -0.5659 H   0  0  0  0  0  0  0  0  0  0  0  0
    0.6520   -2.7291   -0.2178 H   0  0  0  0  0  0  0  0  0  0  0  0
    1.8050   -2.8973    1.1169 H   0  0  0  0  0  0  0  0  0  0  0  0
   -0.5333   -0.8987   -0.8738 H   0  0  0  0  0  0  0  0  0  0  0  0
   -0.5048    0.8248   -1.0325 H   0  0  0  0  0  0  0  0  0  0  0  0
   -2.0043    0.3980    0.7589 H   0  0  0  0  0  0  0  0  0  0  0  0
   -0.5590    1.0023    1.5522 H   0  0  0  0  0  0  0  0  0  0  0  0
    4.1639    2.6352    0.5522 H   0  0  0  0  0  0  0  0  0  0  0  0
    6.1628    4.8217   -2.3786 H   0  0  0  0  0  0  0  0  0  0  0  0
 44  1  1  0
  1 45  1  0
  1  2  2  0
  2 46  1  0
  2  3  1  0
  3  4  2  0
  4  5  1  0
  5 47  1  0
  5 48  1  0
  5 49  1  0
  4  6  1  0
  6  7  2  0
  7 50  1  0
  7  8  1  0
  8  9  2  0
  9 10  1  0
 10 51  1  0
 10 52  1  0
 10 53  1  0
  9 11  1  0
 11 12  1  0
 12 54  1  0
 12 55  1  0
 12 13  1  0
 13 56  1  0
 13 57  1  0
 13 14  1  0
 14 15  2  0
 14 16  1  0
 11 17  2  0
 17 18  1  0
 18 58  1  0
 18 19  2  0
 19 20  1  0
 20 21  2  0
 21 22  1  0
 22 59  1  0
 22 23  2  0
 23 24  1  0
 24 25  1  0
 25 60  1  0
 25 26  2  0
 26 61  1  0
 26 62  1  0
 24 27  2  0
 27 28  1  0
 28 63  1  0
 28 64  1  0
 28 65  1  0
 27 29  1  0
 29 30  2  0
 23 31  1  0
 29 31  1  0
 31 66  1  0
 21 32  1  0
 32 33  1  0
 33 67  1  0
 33 68  1  0
 33 69  1  0
 19 34  1  0
 32 34  2  0
 34 35  1  0
 35 70  1  0
 35 71  1  0
 35 36  1  0
 36 72  1  0
 36 73  1  0
 36 37  1  0
 37 38  2  0
 37 39  1  0
  8 40  1  0
 17 40  1  0
 40 74  1  0
  6 41  1  0
 41 75  1  0
  3 42  1  0
 41 42  1  0
 42 43  2  0
M  CHG  2  16  -1  39  -1
M  END
>  <conformer_energy>  (1) 
27.27

>  <ligand_smiles>  (1) 
C=CC1=C(C)/C(=C/c2[nH]c(/C=C3\N=C(/C=C4\NC(=O)C(C)=C4C=C)C(C)=C3CCC(=O)[O-])c(CCC(=O)[O-])c2C)NC1=O

>  <ligand_conf_name>  (1) 
MOL_0_isomer_0_conf_0

>  <ligand_molecule_name>  (1) 
MOL_0_isomer_0

$$$$
