MOL_0_isomer_0_conf_0
     RDKit          3D

 61 63  0  0  0  0  0  0  0  0999 V2000
    0.3353   -1.4399    1.3135 O   0  0  0  0  0  0  0  0  0  0  0  0
   -0.2882   -0.9272    0.1382 C   0  0  1  0  0  0  0  0  0  0  0  0
   -0.2855    0.5573   -0.2598 C   0  0  1  0  0  0  0  0  0  0  0  0
    0.8846    1.0470   -0.8591 O   0  0  0  0  0  0  0  0  0  0  0  0
    2.3097    1.0309   -0.0878 P   0  0  1  0  0  5  0  0  0  0  0  0
    2.5711   -0.4167    0.2536 O   0  0  0  0  0  0  0  0  0  0  0  0
    3.2522    1.7346   -1.0353 O   0  0  0  0  0  1  0  0  0  0  0  0
    1.9603    1.9747    1.1382 O   0  0  0  0  0  0  0  0  0  0  0  0
    1.6328    1.6801    2.6620 P   0  0  2  0  0  5  0  0  0  0  0  0
    2.8643    1.7726    3.5187 O   0  0  0  0  0  0  0  0  0  0  0  0
    0.6667    0.5200    2.7525 O   0  0  0  0  0  1  0  0  0  0  0  0
    0.7292    2.9807    2.9968 O   0  0  0  0  0  0  0  0  0  0  0  0
    1.2268    4.2731    2.6987 C   0  0  0  0  0  0  0  0  0  0  0  0
    0.0440    5.2070    2.4629 C   0  0  1  0  0  0  0  0  0  0  0  0
   -0.8030    4.7169    1.4013 O   0  0  0  0  0  0  0  0  0  0  0  0
   -2.1679    5.0337    1.7158 C   0  0  1  0  0  0  0  0  0  0  0  0
   -3.0037    3.8355    1.6972 N   0  0  0  0  0  0  0  0  0  0  0  0
   -2.5668    2.6457    2.2542 C   0  0  0  0  0  0  0  0  0  0  0  0
   -3.3055    1.5257    2.2604 C   0  0  0  0  0  0  0  0  0  0  0  0
   -2.8671    0.2350    2.8849 C   0  0  0  0  0  0  0  0  0  0  0  0
   -4.6305    1.5701    1.6069 C   0  0  0  0  0  0  0  0  0  0  0  0
   -5.3477    0.5790    1.5033 O   0  0  0  0  0  0  0  0  0  0  0  0
   -5.0105    2.7878    1.1245 N   0  0  0  0  0  0  0  0  0  0  0  0
   -4.2708    3.9434    1.1506 C   0  0  0  0  0  0  0  0  0  0  0  0
   -4.7578    4.9861    0.7133 O   0  0  0  0  0  0  0  0  0  0  0  0
   -2.1806    5.7631    3.0466 C   0  0  0  0  0  0  0  0  0  0  0  0
   -0.8638    5.3706    3.6814 C   0  0  2  0  0  0  0  0  0  0  0  0
   -0.4409    6.3788    4.5988 O   0  0  0  0  0  0  0  0  0  0  0  0
   -1.3463    0.6300   -1.2769 O   0  0  0  0  0  0  0  0  0  0  0  0
   -0.9849   -0.0577   -2.4920 C   0  0  2  0  0  0  0  0  0  0  0  0
   -2.1167    0.1680   -3.4917 C   0  0  0  0  0  0  0  0  0  0  0  0
   -0.7065   -1.5647   -2.2299 C   0  0  2  0  0  0  0  0  0  0  0  0
   -1.9055   -2.3032   -1.9170 O   0  0  0  0  0  0  0  0  0  0  0  0
    0.2737   -1.6869   -1.0583 C   0  0  2  0  0  0  0  0  0  0  0  0
    0.4601   -3.0930   -0.5943 N   0  0  0  0  0  4  0  0  0  0  0  0
    0.5715   -0.6648    1.8939 H   0  0  0  0  0  0  0  0  0  0  0  0
   -1.3391   -1.2065    0.2864 H   0  0  0  0  0  0  0  0  0  0  0  0
   -0.5887    1.2091    0.5572 H   0  0  0  0  0  0  0  0  0  0  0  0
    1.8302    4.6324    3.5297 H   0  0  0  0  0  0  0  0  0  0  0  0
    1.8441    4.2503    1.8005 H   0  0  0  0  0  0  0  0  0  0  0  0
    0.4380    6.1815    2.1451 H   0  0  0  0  0  0  0  0  0  0  0  0
   -2.5191    5.7171    0.9347 H   0  0  0  0  0  0  0  0  0  0  0  0
   -1.5774    2.6415    2.7015 H   0  0  0  0  0  0  0  0  0  0  0  0
   -2.7513   -0.5434    2.1275 H   0  0  0  0  0  0  0  0  0  0  0  0
   -3.6033   -0.1131    3.6184 H   0  0  0  0  0  0  0  0  0  0  0  0
   -1.9178    0.3372    3.4139 H   0  0  0  0  0  0  0  0  0  0  0  0
   -5.9188    2.8477    0.6930 H   0  0  0  0  0  0  0  0  0  0  0  0
   -2.2015    6.8442    2.8790 H   0  0  0  0  0  0  0  0  0  0  0  0
   -3.0423    5.5309    3.6722 H   0  0  0  0  0  0  0  0  0  0  0  0
   -0.9812    4.4335    4.2411 H   0  0  0  0  0  0  0  0  0  0  0  0
   -0.1543    7.1586    4.0931 H   0  0  0  0  0  0  0  0  0  0  0  0
   -0.0822    0.4046   -2.9049 H   0  0  0  0  0  0  0  0  0  0  0  0
   -3.0893   -0.1112   -3.0817 H   0  0  0  0  0  0  0  0  0  0  0  0
   -1.9484   -0.3936   -4.4119 H   0  0  0  0  0  0  0  0  0  0  0  0
   -2.1924    1.2341   -3.7404 H   0  0  0  0  0  0  0  0  0  0  0  0
   -0.2869   -2.0302   -3.1256 H   0  0  0  0  0  0  0  0  0  0  0  0
   -2.5689   -1.6646   -1.5821 H   0  0  0  0  0  0  0  0  0  0  0  0
    1.2666   -1.3623   -1.3724 H   0  0  0  0  0  0  0  0  0  0  0  0
    1.2069   -3.5847   -1.0771 H   0  0  0  0  0  0  0  0  0  0  0  0
    0.7800   -2.9415    0.3889 H   0  0  0  0  0  0  0  0  0  0  0  0
   -0.4324   -3.5943   -0.5710 H   0  0  0  0  0  0  0  0  0  0  0  0
 36  1  1  0
  1  2  1  0
  2 37  1  1
  2  3  1  0
  3 38  1  1
  3  4  1  0
  4  5  1  0
  5  6  2  0
  5  7  1  6
  5  8  1  0
  8  9  1  0
  9 10  2  0
  9 11  1  6
  9 12  1  0
 12 13  1  0
 13 39  1  0
 13 40  1  0
 13 14  1  0
 14 41  1  6
 14 15  1  0
 15 16  1  0
 16 42  1  6
 16 17  1  0
 17 18  1  0
 18 43  1  0
 18 19  2  0
 19 20  1  0
 20 44  1  0
 20 45  1  0
 20 46  1  0
 19 21  1  0
 21 22  2  0
 21 23  1  0
 23 47  1  0
 17 24  1  0
 23 24  1  0
 24 25  2  0
 16 26  1  0
 26 48  1  0
 26 49  1  0
 14 27  1  0
 26 27  1  0
 27 50  1  1
 27 28  1  0
 28 51  1  0
  3 29  1  0
 29 30  1  0
 30 52  1  6
 30 31  1  0
 31 53  1  0
 31 54  1  0
 31 55  1  0
 30 32  1  0
 32 56  1  6
 32 33  1  0
 33 57  1  0
  2 34  1  0
 32 34  1  0
 34 58  1  6
 34 35  1  0
 35 59  1  0
 35 60  1  0
 35 61  1  0
M  CHG  3   7  -1  11  -1  35   1
M  END
>  <conformer_energy>  (1) 
-298.46

>  <ligand_smiles>  (1) 
Cc1cn([C@H]2C[C@H](O)[C@@H](CO[P@@](=O)([O-])O[P@](=O)([O-])O[C@H]3O[C@H](C)[C@H](O)[C@H]([NH3+])[C@H]3O)O2)c(=O)[nH]c1=O

>  <ligand_conf_name>  (1) 
MOL_0_isomer_0_conf_0

>  <ligand_molecule_name>  (1) 
MOL_0_isomer_0

$$$$
