MOL_0_isomer_0_conf_0
     RDKit          3D

 58 62  0  0  0  0  0  0  0  0999 V2000
    8.9150    1.0860    0.8209 C   0  0  0  0  0  0  0  0  0  0  0  0
    8.4158   -0.0030    1.4398 N   0  0  0  0  0  0  0  0  0  0  0  0
    8.6437   -1.2006    0.8413 C   0  0  0  0  0  0  0  0  0  0  0  0
    9.3329   -1.3821   -0.3580 C   0  0  0  0  0  0  0  0  0  0  0  0
    9.5190   -2.7175   -0.9391 C   0  0  0  0  0  0  0  0  0  0  0  0
    8.6840   -3.6895   -0.5028 N   0  0  0  0  0  0  0  0  0  0  0  0
    8.8088   -4.9607   -0.9662 C   0  0  0  0  0  0  0  0  0  0  0  0
    7.9789   -5.9872   -0.4983 N   0  0  0  0  0  0  0  0  0  0  0  0
    6.7759   -5.9475    0.2349 C   0  0  0  0  0  0  0  0  0  0  0  0
    5.9537   -4.8081    0.2404 C   0  0  0  0  0  0  0  0  0  0  0  0
    4.7604   -4.7777    0.9748 C   0  0  0  0  0  0  0  0  0  0  0  0
    3.8457   -3.6017    0.9450 C   0  0  0  0  0  0  0  0  0  0  0  0
    2.6392   -3.8127    1.0016 O   0  0  0  0  0  0  0  0  0  0  0  0
    4.4698   -2.3688    0.8924 N   0  0  0  0  0  0  0  0  0  0  0  0
    3.8534   -1.1007    0.7963 C   0  0  0  0  0  0  0  0  0  0  0  0
    4.6913    0.0193    0.8510 C   0  0  0  0  0  0  0  0  0  0  0  0
    4.1647    1.3072    0.7574 C   0  0  0  0  0  0  0  0  0  0  0  0
    2.7920    1.4839    0.6066 C   0  0  0  0  0  0  0  0  0  0  0  0
    1.9402    0.3797    0.5498 C   0  0  0  0  0  0  0  0  0  0  0  0
    0.6152    0.6918    0.4004 O   0  0  0  0  0  0  0  0  0  0  0  0
   -0.3030   -0.3955    0.4051 C   0  0  0  0  0  0  0  0  0  0  0  0
    2.4756   -0.9100    0.6413 C   0  0  0  0  0  0  0  0  0  0  0  0
    4.3749   -5.8959    1.7154 C   0  0  0  0  0  0  0  0  0  0  0  0
    5.1885   -7.0258    1.7435 C   0  0  0  0  0  0  0  0  0  0  0  0
    6.3925   -7.0604    1.0198 C   0  0  0  0  0  0  0  0  0  0  0  0
    7.2370   -8.3054    1.0947 C   0  0  0  0  0  0  0  0  0  0  0  0
    9.8327   -5.2024   -1.8913 C   0  0  0  0  0  0  0  0  0  0  0  0
   10.3520   -6.2911   -2.6233 C   0  0  0  0  0  0  0  0  0  0  0  0
   11.3832   -5.9502   -3.4033 N   0  0  0  0  0  0  0  0  0  0  0  0
   11.5208   -4.6238   -3.1740 N   0  0  0  0  0  0  0  0  0  0  0  0
   12.5583   -3.8905   -3.8551 C   0  0  0  0  0  0  0  0  0  0  0  0
   10.6148   -4.1288   -2.2749 C   0  0  0  0  0  0  0  0  0  0  0  0
   10.5058   -2.8628   -1.8438 N   0  0  0  0  0  0  0  0  0  0  0  0
    9.8316   -0.2149   -0.9561 C   0  0  0  0  0  0  0  0  0  0  0  0
    9.6234    1.0319   -0.3659 C   0  0  0  0  0  0  0  0  0  0  0  0
    8.7263    2.0326    1.3195 H   0  0  0  0  0  0  0  0  0  0  0  0
    8.2405   -2.0507    1.3887 H   0  0  0  0  0  0  0  0  0  0  0  0
    8.2765   -6.9153   -0.7630 H   0  0  0  0  0  0  0  0  0  0  0  0
    6.2128   -3.9617   -0.3887 H   0  0  0  0  0  0  0  0  0  0  0  0
    5.4788   -2.3560    0.9752 H   0  0  0  0  0  0  0  0  0  0  0  0
    5.7648   -0.0920    0.9756 H   0  0  0  0  0  0  0  0  0  0  0  0
    4.8237    2.1693    0.8060 H   0  0  0  0  0  0  0  0  0  0  0  0
    2.3794    2.4870    0.5355 H   0  0  0  0  0  0  0  0  0  0  0  0
   -1.3115    0.0197    0.3145 H   0  0  0  0  0  0  0  0  0  0  0  0
   -0.2562   -0.9499    1.3485 H   0  0  0  0  0  0  0  0  0  0  0  0
   -0.1370   -1.0554   -0.4531 H   0  0  0  0  0  0  0  0  0  0  0  0
    1.8190   -1.7679    0.5847 H   0  0  0  0  0  0  0  0  0  0  0  0
    3.4393   -5.8885    2.2715 H   0  0  0  0  0  0  0  0  0  0  0  0
    4.8740   -7.8831    2.3355 H   0  0  0  0  0  0  0  0  0  0  0  0
    6.8579   -9.0053    1.8470 H   0  0  0  0  0  0  0  0  0  0  0  0
    8.2650   -8.0545    1.3763 H   0  0  0  0  0  0  0  0  0  0  0  0
    7.2367   -8.8196    0.1284 H   0  0  0  0  0  0  0  0  0  0  0  0
   10.0225   -7.3220   -2.6245 H   0  0  0  0  0  0  0  0  0  0  0  0
   13.5232   -4.3206   -3.5751 H   0  0  0  0  0  0  0  0  0  0  0  0
   12.5241   -2.8377   -3.5664 H   0  0  0  0  0  0  0  0  0  0  0  0
   12.3954   -3.9845   -4.9318 H   0  0  0  0  0  0  0  0  0  0  0  0
   10.3845   -0.2716   -1.8919 H   0  0  0  0  0  0  0  0  0  0  0  0
   10.0054    1.9373   -0.8247 H   0  0  0  0  0  0  0  0  0  0  0  0
 36  1  1  0
  1  2  2  0
  2  3  1  0
  3 37  1  0
  3  4  2  0
  4  5  1  0
  5  6  2  0
  6  7  1  0
  7  8  1  0
  8 38  1  0
  8  9  1  0
  9 10  2  0
 10 39  1  0
 10 11  1  0
 11 12  1  0
 12 13  2  0
 12 14  1  0
 14 40  1  0
 14 15  1  0
 15 16  2  0
 16 41  1  0
 16 17  1  0
 17 42  1  0
 17 18  2  0
 18 43  1  0
 18 19  1  0
 19 20  1  0
 20 21  1  0
 21 44  1  0
 21 45  1  0
 21 46  1  0
 15 22  1  0
 19 22  2  0
 22 47  1  0
 11 23  2  0
 23 48  1  0
 23 24  1  0
 24 49  1  0
  9 25  1  0
 24 25  2  0
 25 26  1  0
 26 50  1  0
 26 51  1  0
 26 52  1  0
  7 27  2  0
 27 28  1  0
 28 53  1  0
 28 29  2  0
 29 30  1  0
 30 31  1  0
 31 54  1  0
 31 55  1  0
 31 56  1  0
 27 32  1  0
 30 32  1  0
  5 33  1  0
 32 33  2  0
  4 34  1  0
 34 57  1  0
  1 35  1  0
 34 35  2  0
 35 58  1  0
M  END
>  <conformer_energy>  (1) 
52.38

>  <ligand_smiles>  (1) 
COc1cccc(NC(=O)c2ccc(C)c(Nc3nc(-c4cccnc4)nc4c3cnn4C)c2)c1

>  <ligand_conf_name>  (1) 
MOL_0_isomer_0_conf_0

>  <ligand_molecule_name>  (1) 
MOL_0_isomer_0

$$$$
