1V4S - prepared_ligand2_conf_0
     RDKit          3D

 36 38  0  0  0  0  0  0  0  0999 V2000
   -1.4375    0.1185    1.8930 C   0  0  0  0  0  0  0  0  0  0  0  0
   -0.3110    0.8133    1.5010 N   0  0  0  0  0  0  0  0  0  0  0  0
    0.1854    0.2828    0.4097 C   0  0  0  0  0  0  0  0  0  0  0  0
    1.3623    0.7349   -0.1231 N   0  0  0  0  0  0  0  0  0  0  0  0
    2.0052    0.4364   -1.2947 C   0  0  0  0  0  0  0  0  0  0  0  0
    3.2102    0.6559   -1.4128 O   0  0  0  0  0  0  0  0  0  0  0  0
    1.2763   -0.0374   -2.4916 C   0  0  0  0  0  0  0  0  0  0  0  0
    0.2107    0.7438   -2.9771 C   0  0  0  0  0  0  0  0  0  0  0  0
   -0.4869    0.3504   -4.1230 C   0  0  0  0  0  0  0  0  0  0  0  0
   -1.8139    1.3929   -4.7029 S   0  0  0  0  0  0  0  0  0  0  0  0
   -2.9357    0.1436   -5.2931 C   0  0  0  0  0  0  0  0  0  0  0  0
   -3.6505   -0.7406   -4.5868 N   0  0  0  0  0  0  0  0  0  0  0  0
   -3.6587   -0.8787   -3.1374 C   0  0  0  0  0  0  0  0  0  0  0  0
   -4.3872   -1.5168   -5.4783 C   0  0  0  0  0  0  0  0  0  0  0  0
   -4.1206   -1.0480   -6.7361 C   0  0  0  0  0  0  0  0  0  0  0  0
   -3.2376   -0.0113   -6.5784 N   0  0  0  0  0  0  0  0  0  0  0  0
   -0.0809   -0.8176   -4.7761 C   0  0  0  0  0  0  0  0  0  0  0  0
   -0.7174   -1.2294   -5.8827 F   0  0  0  0  0  0  0  0  0  0  0  0
    0.9871   -1.5835   -4.3087 C   0  0  0  0  0  0  0  0  0  0  0  0
    1.7135   -1.1822   -3.1848 C   0  0  0  0  0  0  0  0  0  0  0  0
    2.7402   -1.9932   -2.7154 N   0  0  0  0  0  0  0  0  0  0  0  0
   -0.6590   -1.0685   -0.2003 S   0  0  0  0  0  0  0  0  0  0  0  0
   -1.7848   -0.9422    1.0855 C   0  0  0  0  0  0  0  0  0  0  0  0
   -1.9651    0.4251    2.7891 H   0  0  0  0  0  0  0  0  0  0  0  0
    1.8882    1.3233    0.5121 H   0  0  0  0  0  0  0  0  0  0  0  0
   -0.0530    1.6637   -2.4564 H   0  0  0  0  0  0  0  0  0  0  0  0
   -4.5242   -1.4690   -2.8237 H   0  0  0  0  0  0  0  0  0  0  0  0
   -3.7203    0.1076   -2.6707 H   0  0  0  0  0  0  0  0  0  0  0  0
   -2.7443   -1.3883   -2.8252 H   0  0  0  0  0  0  0  0  0  0  0  0
   -5.0138   -2.3056   -5.0965 H   0  0  0  0  0  0  0  0  0  0  0  0
   -4.4435   -1.3147   -7.7271 H   0  0  0  0  0  0  0  0  0  0  0  0
   -2.8227    0.5511   -7.3147 H   0  0  0  0  0  0  0  0  0  0  0  0
    1.2615   -2.4861   -4.8485 H   0  0  0  0  0  0  0  0  0  0  0  0
    3.1244   -2.7243   -3.3020 H   0  0  0  0  0  0  0  0  0  0  0  0
    3.4028   -1.5776   -2.0585 H   0  0  0  0  0  0  0  0  0  0  0  0
   -2.6071   -1.6334    1.2022 H   0  0  0  0  0  0  0  0  0  0  0  0
 24  1  1  0
  1  2  1  0
  2  3  2  0
  3  4  1  0
  4 25  1  0
  4  5  1  0
  5  6  2  0
  5  7  1  0
  7  8  2  0
  8 26  1  0
  8  9  1  0
  9 10  1  0
 10 11  1  0
 11 12  1  0
 12 13  1  0
 13 27  1  0
 13 28  1  0
 13 29  1  0
 12 14  1  0
 14 30  1  0
 14 15  2  0
 15 31  1  0
 11 16  2  0
 15 16  1  0
 16 32  1  0
  9 17  2  0
 17 18  1  0
 17 19  1  0
 19 33  1  0
  7 20  1  0
 19 20  2  0
 20 21  1  0
 21 34  1  0
 21 35  1  0
  3 22  1  0
  1 23  2  0
 22 23  1  0
 23 36  1  0
M  CHG  1  16   1
M  END
>  <conformer_energy>  (1) 
12.70

>  <ligand_smiles>  (1) 
Cn1cc[nH+]c1Sc1cc(C(=O)Nc2nccs2)c(N)cc1F

>  <ligand_conf_name>  (1) 
1V4S - prepared_ligand2_conf_0

>  <ligand_molecule_name>  (1) 
1V4S - prepared_ligand2

$$$$
