MOL_0_isomer_0_conf_0
     RDKit          3D

 64 67  0  0  0  0  0  0  0  0999 V2000
    3.8884   -2.7269   -7.3209 O   0  0  0  0  0  0  0  0  0  0  0  0
    4.6745   -3.0644   -8.4757 C   0  0  0  0  0  0  0  0  0  0  0  0
    6.1496   -2.7544   -8.1412 C   0  0  2  0  0  0  0  0  0  0  0  0
    7.1865   -3.3835   -9.0937 C   0  0  1  0  0  0  0  0  0  0  0  0
    8.4339   -2.6849   -8.9582 O   0  0  0  0  0  0  0  0  0  0  0  0
    7.3931   -4.8939   -8.8723 C   0  0  2  0  0  0  0  0  0  0  0  0
    6.2490   -5.6231   -9.3014 O   0  0  0  0  0  0  0  0  0  0  0  0
    7.6739   -5.2104   -7.3950 C   0  0  1  0  0  0  0  0  0  0  0  0
    8.9401   -4.6516   -7.0184 O   0  0  0  0  0  0  0  0  0  0  0  0
    6.5613   -4.6523   -6.4930 C   0  0  0  0  0  0  0  0  0  0  0  0
    6.3800   -3.1657   -6.6800 N   0  0  1  0  0  4  0  0  0  0  0  0
    7.3687   -2.3132   -5.9207 C   0  0  0  0  0  0  0  0  0  0  0  0
    6.8793   -0.9101   -5.6706 C   0  0  0  0  0  0  0  0  0  0  0  0
    7.4819    0.1830   -6.3086 C   0  0  0  0  0  0  0  0  0  0  0  0
    7.0189    1.4790   -6.0781 C   0  0  0  0  0  0  0  0  0  0  0  0
    5.9478    1.6999   -5.2119 C   0  0  0  0  0  0  0  0  0  0  0  0
    5.3281    0.6246   -4.5660 C   0  0  0  0  0  0  0  0  0  0  0  0
    4.1646    0.8447   -3.6235 C   0  0  0  0  0  0  0  0  0  0  0  0
    4.5609    0.4560   -2.2855 N   0  0  0  0  0  0  0  0  0  0  0  0
    3.6735    0.2731   -1.2384 C   0  0  0  0  0  0  0  0  0  0  0  0
    2.2812    0.3431   -1.3799 C   0  0  0  0  0  0  0  0  0  0  0  0
    1.3915    0.0968   -0.3116 C   0  0  0  0  0  0  0  0  0  0  0  0
   -0.0731    0.1790   -0.4953 C   0  0  0  0  0  0  0  0  0  0  0  0
   -0.8567   -0.0201    0.5849 N   0  0  0  0  0  0  0  0  0  0  0  0
   -2.1863    0.0652    0.3931 C   0  0  0  0  0  0  0  0  0  0  0  0
   -2.7616    0.3343   -0.8248 C   0  0  0  0  0  0  0  0  0  0  0  0
   -1.8830    0.5170   -1.8647 C   0  0  0  0  0  0  0  0  0  0  0  0
   -0.5443    0.4435   -1.7333 N   0  0  0  0  0  0  0  0  0  0  0  0
    1.9562   -0.2341    0.9330 C   0  0  0  0  0  0  0  0  0  0  0  0
    3.3419   -0.3162    1.1120 C   0  0  0  0  0  0  0  0  0  0  0  0
    3.9083   -0.7153    2.4421 C   0  0  0  0  0  0  0  0  0  0  0  0
    4.1824   -0.0802    0.0178 C   0  0  0  0  0  0  0  0  0  0  0  0
    5.8043   -0.6766   -4.7989 C   0  0  0  0  0  0  0  0  0  0  0  0
    2.9511   -2.7376   -7.6029 H   0  0  0  0  0  0  0  0  0  0  0  0
    4.4927   -4.1172   -8.6929 H   0  0  0  0  0  0  0  0  0  0  0  0
    4.3406   -2.4620   -9.3273 H   0  0  0  0  0  0  0  0  0  0  0  0
    6.2555   -1.6643   -8.1579 H   0  0  0  0  0  0  0  0  0  0  0  0
    6.8505   -3.2139  -10.1231 H   0  0  0  0  0  0  0  0  0  0  0  0
    9.0168   -3.1822   -8.3484 H   0  0  0  0  0  0  0  0  0  0  0  0
    8.2578   -5.2204   -9.4657 H   0  0  0  0  0  0  0  0  0  0  0  0
    6.4640   -6.0507  -10.1560 H   0  0  0  0  0  0  0  0  0  0  0  0
    7.7196   -6.2955   -7.2419 H   0  0  0  0  0  0  0  0  0  0  0  0
    9.6195   -5.3437   -7.1538 H   0  0  0  0  0  0  0  0  0  0  0  0
    5.5972   -5.1226   -6.7148 H   0  0  0  0  0  0  0  0  0  0  0  0
    6.7855   -4.8186   -5.4344 H   0  0  0  0  0  0  0  0  0  0  0  0
    5.4593   -2.9422   -6.2584 H   0  0  0  0  0  0  0  0  0  0  0  0
    7.5440   -2.7952   -4.9514 H   0  0  0  0  0  0  0  0  0  0  0  0
    8.3166   -2.3083   -6.4620 H   0  0  0  0  0  0  0  0  0  0  0  0
    8.3199    0.0416   -6.9901 H   0  0  0  0  0  0  0  0  0  0  0  0
    7.4958    2.3239   -6.5720 H   0  0  0  0  0  0  0  0  0  0  0  0
    5.6050    2.7191   -5.0407 H   0  0  0  0  0  0  0  0  0  0  0  0
    3.8472    1.8940   -3.6337 H   0  0  0  0  0  0  0  0  0  0  0  0
    3.3286    0.2367   -3.9917 H   0  0  0  0  0  0  0  0  0  0  0  0
    5.5319    0.6102   -2.0390 H   0  0  0  0  0  0  0  0  0  0  0  0
    1.8508    0.6053   -2.3432 H   0  0  0  0  0  0  0  0  0  0  0  0
   -2.7946   -0.0940    1.2791 H   0  0  0  0  0  0  0  0  0  0  0  0
   -3.8328    0.3994   -0.9545 H   0  0  0  0  0  0  0  0  0  0  0  0
   -2.2399    0.7360   -2.8671 H   0  0  0  0  0  0  0  0  0  0  0  0
    1.3012   -0.4346    1.7807 H   0  0  0  0  0  0  0  0  0  0  0  0
    3.3170   -0.2903    3.2609 H   0  0  0  0  0  0  0  0  0  0  0  0
    4.9348   -0.3529    2.5588 H   0  0  0  0  0  0  0  0  0  0  0  0
    3.9088   -1.8061    2.5335 H   0  0  0  0  0  0  0  0  0  0  0  0
    5.2580   -0.1714    0.1522 H   0  0  0  0  0  0  0  0  0  0  0  0
    5.3252   -1.5030   -4.2732 H   0  0  0  0  0  0  0  0  0  0  0  0
 34  1  1  0
  1  2  1  0
  2 35  1  0
  2 36  1  0
  2  3  1  0
  3 37  1  1
  3  4  1  0
  4 38  1  6
  4  5  1  0
  5 39  1  0
  4  6  1  0
  6 40  1  6
  6  7  1  0
  7 41  1  0
  6  8  1  0
  8 42  1  6
  8  9  1  0
  9 43  1  0
  8 10  1  0
 10 44  1  0
 10 45  1  0
  3 11  1  0
 10 11  1  0
 11 46  1  1
 11 12  1  0
 12 47  1  0
 12 48  1  0
 12 13  1  0
 13 14  2  0
 14 49  1  0
 14 15  1  0
 15 50  1  0
 15 16  2  0
 16 51  1  0
 16 17  1  0
 17 18  1  0
 18 52  1  0
 18 53  1  0
 18 19  1  0
 19 54  1  0
 19 20  1  0
 20 21  2  0
 21 55  1  0
 21 22  1  0
 22 23  1  0
 23 24  2  0
 24 25  1  0
 25 56  1  0
 25 26  2  0
 26 57  1  0
 26 27  1  0
 27 58  1  0
 23 28  1  0
 27 28  2  0
 22 29  2  0
 29 59  1  0
 29 30  1  0
 30 31  1  0
 31 60  1  0
 31 61  1  0
 31 62  1  0
 20 32  1  0
 30 32  2  0
 32 63  1  0
 13 33  1  0
 17 33  2  0
 33 64  1  0
M  CHG  1  11   1
M  END
>  <conformer_energy>  (1) 
130.40

>  <ligand_smiles>  (1) 
Cc1cc(NCc2cccc(C[N@@H+]3C[C@H](O)[C@@H](O)[C@H](O)[C@H]3CO)c2)cc(-c2ncccn2)c1

>  <ligand_conf_name>  (1) 
MOL_0_isomer_0_conf_0

>  <ligand_molecule_name>  (1) 
MOL_0_isomer_0

$$$$
