MOL_0_isomer_0_conf_0
     RDKit          3D

 27 26  0  0  0  0  0  0  0  0999 V2000
    3.4015    1.0664   -1.7812 C   0  0  0  0  0  0  0  0  0  0  0  0
    4.1762    0.0440   -2.6305 C   0  0  0  0  0  0  0  0  0  0  0  0
    5.6731   -0.0042   -2.3402 C   0  0  2  0  0  0  0  0  0  0  0  0
    5.9818   -0.3622   -0.8545 C   0  0  0  0  0  0  0  0  0  0  0  0
    5.1271   -1.0509   -0.2386 O   0  0  0  0  0  0  0  0  0  0  0  0
    7.0319    0.2389   -0.4741 O   0  0  0  0  0  1  0  0  0  0  0  0
    6.3400    1.3054   -2.6915 N   0  0  0  0  0  4  0  0  0  0  0  0
    1.9847    0.5907   -1.4340 C   0  0  0  0  0  0  0  0  0  0  0  0
    1.8070    0.0674    0.0006 C   0  0  1  0  0  0  0  0  0  0  0  0
    0.3047   -0.3337    0.1254 C   0  0  0  0  0  0  0  0  0  0  0  0
    0.1731   -1.5979    0.1596 O   0  0  0  0  0  0  0  0  0  0  0  0
   -0.5257    0.6021    0.1841 O   0  0  0  0  0  1  0  0  0  0  0  0
    2.6815   -1.1201    0.2779 N   0  0  0  0  0  4  0  0  0  0  0  0
    3.3242    1.9903   -2.3693 H   0  0  0  0  0  0  0  0  0  0  0  0
    3.9354    1.3423   -0.8657 H   0  0  0  0  0  0  0  0  0  0  0  0
    4.0139    0.2689   -3.6924 H   0  0  0  0  0  0  0  0  0  0  0  0
    3.7664   -0.9617   -2.4728 H   0  0  0  0  0  0  0  0  0  0  0  0
    6.1602   -0.7578   -2.9692 H   0  0  0  0  0  0  0  0  0  0  0  0
    5.7847    2.1227   -2.4274 H   0  0  0  0  0  0  0  0  0  0  0  0
    7.1431    1.3096   -2.0170 H   0  0  0  0  0  0  0  0  0  0  0  0
    6.7004    1.3631   -3.6440 H   0  0  0  0  0  0  0  0  0  0  0  0
    1.3180    1.4556   -1.5562 H   0  0  0  0  0  0  0  0  0  0  0  0
    1.6337   -0.1503   -2.1640 H   0  0  0  0  0  0  0  0  0  0  0  0
    2.0683    0.8279    0.7432 H   0  0  0  0  0  0  0  0  0  0  0  0
    2.6069   -1.3593    1.2695 H   0  0  0  0  0  0  0  0  0  0  0  0
    3.7029   -1.0837    0.0523 H   0  0  0  0  0  0  0  0  0  0  0  0
    2.2217   -1.9223   -0.1804 H   0  0  0  0  0  0  0  0  0  0  0  0
 14  1  1  0
  1 15  1  0
  1  2  1  0
  2 16  1  0
  2 17  1  0
  2  3  1  0
  3 18  1  6
  3  4  1  0
  4  5  2  0
  4  6  1  0
  3  7  1  0
  7 19  1  0
  7 20  1  0
  7 21  1  0
  1  8  1  0
  8 22  1  0
  8 23  1  0
  8  9  1  0
  9 24  1  1
  9 10  1  0
 10 11  2  0
 10 12  1  0
  9 13  1  0
 13 25  1  0
 13 26  1  0
 13 27  1  0
M  CHG  4   6  -1   7   1  12  -1  13   1
M  END
>  <conformer_energy>  (1) 
-35.15

>  <ligand_smiles>  (1) 
[NH3+][C@H](CCC[C@H]([NH3+])C(=O)[O-])C(=O)[O-]

>  <ligand_conf_name>  (1) 
MOL_0_isomer_0_conf_0

>  <ligand_molecule_name>  (1) 
MOL_0_isomer_0

$$$$
