MOL_0_isomer_0_conf_0
     RDKit          3D

 24 23  0  0  0  0  0  0  0  0999 V2000
    3.2361    0.5315    1.7114 O   0  0  0  0  0  0  0  0  0  0  0  0
    2.6511   -0.7700    1.7146 C   0  0  0  0  0  0  0  0  0  0  0  0
    2.1948   -1.1409    0.2981 C   0  0  0  0  0  0  0  0  0  0  0  0
    1.3439   -0.0473   -0.3071 N   0  0  0  0  0  4  0  0  0  0  0  0
   -0.0755    0.0645    0.2959 C   0  0  0  0  0  0  0  0  0  0  0  0
   -0.1498    1.0739    1.4720 C   0  0  0  0  0  0  0  0  0  0  0  0
   -1.2206    1.1004    2.1172 O   0  0  0  0  0  0  0  0  0  0  0  0
    0.9452    1.7101    1.6060 O   0  0  0  0  0  1  0  0  0  0  0  0
    1.4091    0.0782   -1.7971 C   0  0  0  0  0  0  0  0  0  0  0  0
    0.7754   -1.1181   -2.5205 C   0  0  0  0  0  0  0  0  0  0  0  0
    1.5256   -2.3099   -2.2959 O   0  0  0  0  0  0  0  0  0  0  0  0
    2.5065    1.1677    1.9463 H   0  0  0  0  0  0  0  0  0  0  0  0
    1.8255   -0.7986    2.4328 H   0  0  0  0  0  0  0  0  0  0  0  0
    3.4103   -1.4813    2.0542 H   0  0  0  0  0  0  0  0  0  0  0  0
    1.6293   -2.0771    0.2843 H   0  0  0  0  0  0  0  0  0  0  0  0
    3.0806   -1.2328   -0.3396 H   0  0  0  0  0  0  0  0  0  0  0  0
    1.7686    0.8253    0.0828 H   0  0  0  0  0  0  0  0  0  0  0  0
   -0.3858   -0.9389    0.6019 H   0  0  0  0  0  0  0  0  0  0  0  0
   -0.7390    0.4249   -0.4970 H   0  0  0  0  0  0  0  0  0  0  0  0
    0.8979    1.0094   -2.0630 H   0  0  0  0  0  0  0  0  0  0  0  0
    2.4687    0.1761   -2.0568 H   0  0  0  0  0  0  0  0  0  0  0  0
   -0.2543   -1.2874   -2.1918 H   0  0  0  0  0  0  0  0  0  0  0  0
    0.7679   -0.9257   -3.5981 H   0  0  0  0  0  0  0  0  0  0  0  0
    1.1062   -3.0164   -2.8213 H   0  0  0  0  0  0  0  0  0  0  0  0
 12  1  1  0
  1  2  1  0
  2 13  1  0
  2 14  1  0
  2  3  1  0
  3 15  1  0
  3 16  1  0
  3  4  1  0
  4 17  1  0
  4  5  1  0
  5 18  1  0
  5 19  1  0
  5  6  1  0
  6  7  2  0
  6  8  1  0
  4  9  1  0
  9 20  1  0
  9 21  1  0
  9 10  1  0
 10 22  1  0
 10 23  1  0
 10 11  1  0
 11 24  1  0
M  CHG  2   4   1   8  -1
M  END
>  <conformer_energy>  (1) 
43.68

>  <ligand_smiles>  (1) 
O=C([O-])C[NH+](CCO)CCO

>  <ligand_conf_name>  (1) 
MOL_0_isomer_0_conf_0

>  <ligand_molecule_name>  (1) 
MOL_0_isomer_0

$$$$
